data_NaCl
_audit_creation_date               2022-01-20
_audit_creation_method
;
Olex2 1.5-alpha
(compiled 2021.12.21 svn.raa29eb2 for OlexSys, GUI svn.r6440)
;
_shelx_SHELXL_version_number       '2016/6'
_audit_contact_author_address      ?
_audit_contact_author_email        ?
_audit_contact_author_name         ''
_audit_contact_author_phone        ?
_publ_contact_author_id_orcid      ?
_publ_section_references
;
Dolomanov, O.V., Bourhis, L.J., Gildea, R.J, Howard, J.A.K. & Puschmann, H.
 (2009), J. Appl. Cryst. 42, 339-341.

Palatinus, L. & Chapuis, G. (2007). J. Appl. Cryst., 40, 786-790;
Palatinus, L. & van der Lee, A. (2008). J. Appl. Cryst. 41, 975-984;
Palatinus, L., Prathapa, S. J. & van Smaalen, S. (2012). J. Appl. Cryst. 45,
 575-580.

Sheldrick, G.M. (2015). Acta Cryst. C71, 3-8.
;
_chemical_name_common              ?
_chemical_name_systematic          ?
_chemical_formula_moiety           'Cl, Na'
_chemical_formula_sum              'Cl Na'
_chemical_formula_weight           58.44
_chemical_melting_point            ?
_chemical_oxdiff_formula           'Na Cl'
_chemical_oxdiff_usercomment       'Colourless block's that mate'
loop_
  _atom_type_symbol
  _atom_type_description
  _atom_type_scat_dispersion_real
  _atom_type_scat_dispersion_imag
  _atom_type_scat_source
 'Cl' 'Cl' 0.1484 0.1585 'International Tables Vol C Tables 4.2.6.8 and 6.1.1.4'
 'Na' 'Na' 0.0362 0.0249 'International Tables Vol C Tables 4.2.6.8 and 6.1.1.4'

_shelx_space_group_comment
;
The symmetry employed for this shelxl refinement is uniquely defined
by the following loop, which should always be used as a source of
symmetry information in preference to the above space-group names.
They are only intended as comments.
;
_space_group_crystal_system        'cubic'
_space_group_IT_number             225
_space_group_name_H-M_alt          'F m -3 m'
_space_group_name_Hall             '-F 4 2 3'
loop_
  _space_group_symop_operation_xyz
 'x, y, z'
 '-y, x, z'
 'x, -y, -z'
 'z, x, y'
 '-x, -y, z'
 '-y, -x, -z'
 'y, x, -z'
 'z, -y, x'
 '-x, z, y'
 '-z, x, -y'
 'z, -x, -y'
 'y, z, x'
 'y, -x, z'
 '-x, y, -z'
 '-z, -x, y'
 '-z, -y, -x'
 '-x, -z, -y'
 'z, y, -x'
 'x, z, -y'
 '-z, y, x'
 '-y, -z, x'
 'y, -z, -x'
 '-y, z, -x'
 'x, -z, y'
 'x, y+1/2, z+1/2'
 '-y, x+1/2, z+1/2'
 'x, -y+1/2, -z+1/2'
 'z, x+1/2, y+1/2'
 '-x, -y+1/2, z+1/2'
 '-y, -x+1/2, -z+1/2'
 'y, x+1/2, -z+1/2'
 'z, -y+1/2, x+1/2'
 '-x, z+1/2, y+1/2'
 '-z, x+1/2, -y+1/2'
 'z, -x+1/2, -y+1/2'
 'y, z+1/2, x+1/2'
 'y, -x+1/2, z+1/2'
 '-x, y+1/2, -z+1/2'
 '-z, -x+1/2, y+1/2'
 '-z, -y+1/2, -x+1/2'
 '-x, -z+1/2, -y+1/2'
 'z, y+1/2, -x+1/2'
 'x, z+1/2, -y+1/2'
 '-z, y+1/2, x+1/2'
 '-y, -z+1/2, x+1/2'
 'y, -z+1/2, -x+1/2'
 '-y, z+1/2, -x+1/2'
 'x, -z+1/2, y+1/2'
 'x+1/2, y, z+1/2'
 '-y+1/2, x, z+1/2'
 'x+1/2, -y, -z+1/2'
 'z+1/2, x, y+1/2'
 '-x+1/2, -y, z+1/2'
 '-y+1/2, -x, -z+1/2'
 'y+1/2, x, -z+1/2'
 'z+1/2, -y, x+1/2'
 '-x+1/2, z, y+1/2'
 '-z+1/2, x, -y+1/2'
 'z+1/2, -x, -y+1/2'
 'y+1/2, z, x+1/2'
 'y+1/2, -x, z+1/2'
 '-x+1/2, y, -z+1/2'
 '-z+1/2, -x, y+1/2'
 '-z+1/2, -y, -x+1/2'
 '-x+1/2, -z, -y+1/2'
 'z+1/2, y, -x+1/2'
 'x+1/2, z, -y+1/2'
 '-z+1/2, y, x+1/2'
 '-y+1/2, -z, x+1/2'
 'y+1/2, -z, -x+1/2'
 '-y+1/2, z, -x+1/2'
 'x+1/2, -z, y+1/2'
 'x+1/2, y+1/2, z'
 '-y+1/2, x+1/2, z'
 'x+1/2, -y+1/2, -z'
 'z+1/2, x+1/2, y'
 '-x+1/2, -y+1/2, z'
 '-y+1/2, -x+1/2, -z'
 'y+1/2, x+1/2, -z'
 'z+1/2, -y+1/2, x'
 '-x+1/2, z+1/2, y'
 '-z+1/2, x+1/2, -y'
 'z+1/2, -x+1/2, -y'
 'y+1/2, z+1/2, x'
 'y+1/2, -x+1/2, z'
 '-x+1/2, y+1/2, -z'
 '-z+1/2, -x+1/2, y'
 '-z+1/2, -y+1/2, -x'
 '-x+1/2, -z+1/2, -y'
 'z+1/2, y+1/2, -x'
 'x+1/2, z+1/2, -y'
 '-z+1/2, y+1/2, x'
 '-y+1/2, -z+1/2, x'
 'y+1/2, -z+1/2, -x'
 '-y+1/2, z+1/2, -x'
 'x+1/2, -z+1/2, y'
 '-x, -y, -z'
 'y, -x, -z'
 '-x, y, z'
 '-z, -x, -y'
 'x, y, -z'
 'y, x, z'
 '-y, -x, z'
 '-z, y, -x'
 'x, -z, -y'
 'z, -x, y'
 '-z, x, y'
 '-y, -z, -x'
 '-y, x, -z'
 'x, -y, z'
 'z, x, -y'
 'z, y, x'
 'x, z, y'
 '-z, -y, x'
 '-x, -z, y'
 'z, -y, -x'
 'y, z, -x'
 '-y, z, x'
 'y, -z, x'
 '-x, z, -y'
 '-x, -y+1/2, -z+1/2'
 'y, -x+1/2, -z+1/2'
 '-x, y+1/2, z+1/2'
 '-z, -x+1/2, -y+1/2'
 'x, y+1/2, -z+1/2'
 'y, x+1/2, z+1/2'
 '-y, -x+1/2, z+1/2'
 '-z, y+1/2, -x+1/2'
 'x, -z+1/2, -y+1/2'
 'z, -x+1/2, y+1/2'
 '-z, x+1/2, y+1/2'
 '-y, -z+1/2, -x+1/2'
 '-y, x+1/2, -z+1/2'
 'x, -y+1/2, z+1/2'
 'z, x+1/2, -y+1/2'
 'z, y+1/2, x+1/2'
 'x, z+1/2, y+1/2'
 '-z, -y+1/2, x+1/2'
 '-x, -z+1/2, y+1/2'
 'z, -y+1/2, -x+1/2'
 'y, z+1/2, -x+1/2'
 '-y, z+1/2, x+1/2'
 'y, -z+1/2, x+1/2'
 '-x, z+1/2, -y+1/2'
 '-x+1/2, -y, -z+1/2'
 'y+1/2, -x, -z+1/2'
 '-x+1/2, y, z+1/2'
 '-z+1/2, -x, -y+1/2'
 'x+1/2, y, -z+1/2'
 'y+1/2, x, z+1/2'
 '-y+1/2, -x, z+1/2'
 '-z+1/2, y, -x+1/2'
 'x+1/2, -z, -y+1/2'
 'z+1/2, -x, y+1/2'
 '-z+1/2, x, y+1/2'
 '-y+1/2, -z, -x+1/2'
 '-y+1/2, x, -z+1/2'
 'x+1/2, -y, z+1/2'
 'z+1/2, x, -y+1/2'
 'z+1/2, y, x+1/2'
 'x+1/2, z, y+1/2'
 '-z+1/2, -y, x+1/2'
 '-x+1/2, -z, y+1/2'
 'z+1/2, -y, -x+1/2'
 'y+1/2, z, -x+1/2'
 '-y+1/2, z, x+1/2'
 'y+1/2, -z, x+1/2'
 '-x+1/2, z, -y+1/2'
 '-x+1/2, -y+1/2, -z'
 'y+1/2, -x+1/2, -z'
 '-x+1/2, y+1/2, z'
 '-z+1/2, -x+1/2, -y'
 'x+1/2, y+1/2, -z'
 'y+1/2, x+1/2, z'
 '-y+1/2, -x+1/2, z'
 '-z+1/2, y+1/2, -x'
 'x+1/2, -z+1/2, -y'
 'z+1/2, -x+1/2, y'
 '-z+1/2, x+1/2, y'
 '-y+1/2, -z+1/2, -x'
 '-y+1/2, x+1/2, -z'
 'x+1/2, -y+1/2, z'
 'z+1/2, x+1/2, -y'
 'z+1/2, y+1/2, x'
 'x+1/2, z+1/2, y'
 '-z+1/2, -y+1/2, x'
 '-x+1/2, -z+1/2, y'
 'z+1/2, -y+1/2, -x'
 'y+1/2, z+1/2, -x'
 '-y+1/2, z+1/2, x'
 'y+1/2, -z+1/2, x'
 '-x+1/2, z+1/2, -y'

_cell_length_a                     5.64109(5)
_cell_length_b                     5.64109(5)
_cell_length_c                     5.64109(5)
_cell_angle_alpha                  90
_cell_angle_beta                   90
_cell_angle_gamma                  90
_cell_volume                       179.510(5)
_cell_formula_units_Z              4
_cell_measurement_reflns_used      6287
_cell_measurement_temperature      296.3(6)
_cell_measurement_theta_max        65.1460
_cell_measurement_theta_min        6.2380
_shelx_estimated_absorpt_T_max     0.829
_shelx_estimated_absorpt_T_min     0.829
_exptl_absorpt_coefficient_mu      1.769
_exptl_absorpt_correction_T_max    0.930
_exptl_absorpt_correction_T_min    0.910
_exptl_absorpt_correction_type     gaussian
_exptl_absorpt_process_details
;
CrysAlisPro 1.171.39.46 (Rigaku Oxford Diffraction, 2018)
Numerical absorption correction based on gaussian integration over
			a multifaceted crystal model
Empirical absorption correction using spherical harmonics,
 implemented in SCALE3 ABSPACK scaling algorithm.
;
_exptl_absorpt_special_details     ?
_exptl_crystal_colour              colourless
_exptl_crystal_density_diffrn      2.162
_exptl_crystal_density_meas        ?
_exptl_crystal_density_method      ?
_exptl_crystal_description         block
_exptl_crystal_F_000               112
loop_
  _exptl_crystal_face_index_h
  _exptl_crystal_face_index_k
  _exptl_crystal_face_index_l
  _exptl_crystal_face_perp_dist
 1 0 0 0.0550
 -1 0 0 0.0550
 0 0 1 0.0550
 0 0 -1 0.0550
 0 -1 0 0.0550
 0 1 0 0.0550

_exptl_crystal_size_max            0.11
_exptl_crystal_size_mid            0.11
_exptl_crystal_size_min            0.11
loop_
  _exptl_oxdiff_crystal_face_indexfrac_h
  _exptl_oxdiff_crystal_face_indexfrac_k
  _exptl_oxdiff_crystal_face_indexfrac_l
  _exptl_oxdiff_crystal_face_x
  _exptl_oxdiff_crystal_face_y
  _exptl_oxdiff_crystal_face_z
 0.9984 0.0006 0.0006 -0.0616 -0.1031 0.0366
 -0.9984 -0.0006 -0.0006 0.0616 0.1031 -0.0366
 -0.0004 -0.0001 0.9985 -0.0696 0.0693 0.0782
 0.0004 0.0001 -0.9985 0.0696 -0.0693 -0.0782
 0.0006 -0.9983 -0.0001 -0.0844 0.0181 -0.0911
 -0.0006 0.9983 0.0001 0.0844 -0.0181 0.0911

_exptl_transmission_factor_max     ?
_exptl_transmission_factor_min     ?
_diffrn_reflns_av_R_equivalents    0.0243
_diffrn_reflns_av_unetI/netI       0.0033
_diffrn_reflns_Laue_measured_fraction_full  1.000
_diffrn_reflns_Laue_measured_fraction_max  1.000
_diffrn_reflns_limit_h_max         14
_diffrn_reflns_limit_h_min         -14
_diffrn_reflns_limit_k_max         14
_diffrn_reflns_limit_k_min         -14
_diffrn_reflns_limit_l_max         14
_diffrn_reflns_limit_l_min         -14
_diffrn_reflns_number              8578
_diffrn_reflns_point_group_measured_fraction_full  1.000
_diffrn_reflns_point_group_measured_fraction_max  1.000
_diffrn_reflns_theta_full          25.242
_diffrn_reflns_theta_max           65.304
_diffrn_reflns_theta_min           6.264
_diffrn_ambient_environment        air
_diffrn_ambient_temperature        296.3(6)
_diffrn_detector                   'CCD plate'
_diffrn_detector_area_resol_mean   16.0026
_diffrn_detector_type              Eos
_diffrn_measured_fraction_theta_full  1.000
_diffrn_measured_fraction_theta_max  1.000
_diffrn_measurement_details
;
List of Runs (angles in degrees, time in seconds):

  # Type    Start    End  Width  t~exp~   \w     \q     \k     \f   Frames
--------------------------------------------------------------------------
  1  \w    -20.00  45.00   1.00    1.00    --    0.00 -99.00 150.00   65
  2  \w    -33.00  72.00   1.00    1.00    --    0.00  77.00 -90.00  105
  3  \w    -75.00  75.00   1.00    1.00    --    0.00   0.00-180.00  150
  4  \w    -75.00  75.00   1.00    1.00    --    0.00   0.00-150.00  150
  5  \w   -123.00 -17.00   1.00    5.00    --  -50.52 -77.00-150.00  106
  6  \w   -123.00 -17.00   1.00    5.00    --  -50.52 -77.00-180.00  106
  7  \w   -123.00 -17.00   1.00    5.00    --  -50.52 -77.00 -30.00  106
  8  \w   -123.00 -73.00   1.00    5.00    --  -50.52-125.00 -60.00   50
  9  \w    -20.00  42.50   0.50    0.50    --    0.00 -99.00 150.00  125
 10  \w    -30.50  70.50   0.50    0.50    --    0.00  77.00 -90.00  202
 11  \w    -73.50  73.50   0.50    0.50    --    0.00   0.00-180.00  294
 12  \w    -73.50  73.50   0.50    0.50    --    0.00   0.00-150.00  294
 13  \w   -123.00 -17.00   1.00    5.00    --  -50.52 -77.00  30.00  106
 14  \w   -123.00 -17.00   1.00    5.00    --  -50.52 -77.00 120.00  106
 15  \w   -123.00 -17.00   1.00    5.00    --  -50.52 -77.00  90.00  106
 16  \w   -123.00 -17.00   1.00    5.00    --  -50.52 -77.00 -90.00  106
 17  \w   -110.00  -2.00   1.00    5.00    --  -50.52 125.00 150.00  108
 18  \w   -123.00 -73.00   1.00    5.00    --  -50.52-125.00   0.00   50
 19  \w    -22.00  84.00   1.00    5.00    --   50.52 -77.00 -90.00  106
 20  \w     17.00 123.00   1.00    5.00    --   50.52  77.00-180.00  106
 21  \w    -20.00  74.00   1.00    5.00    --   50.52 -57.00 -60.00   94
 22  \w     17.00 123.00   1.00    5.00    --   50.52  77.00 -30.00  106
 23  \w    -24.00 125.00   1.00    5.00    --   50.52   0.00-180.00  149
 24  \w    -24.00 125.00   1.00    5.00    --   50.52   0.00-150.00  149
 25  \w    -24.00 125.00   1.00    5.00    --   50.52   0.00-120.00  149
 26  \w    -24.00 125.00   1.00    5.00    --   50.52   0.00 -90.00  149
 27  \w     31.00 127.00   1.00   40.00    --  101.04 -63.00  30.00   96
 28  \w     28.00 142.00   1.00   40.00    --  101.04 -91.00-120.00  114
 29  \w     68.00 158.00   1.00   40.00    --  101.04  77.00  30.00   90
 30  \w     68.00 158.00   1.00   40.00    --  101.04  77.00 -30.00   90
 31  \w     75.00 158.00   1.00   40.00    --  101.04  63.00   0.00   83
 32  \w     75.00 158.00   1.00   40.00    --  101.04  63.00-150.00   83
 33  \w     29.00 127.00   1.00   40.00    --  101.04 -50.00-120.00   98
 34  \w     68.00 158.00   1.00   40.00    --  101.04  77.00 150.00   90
 35  \w     75.00 158.00   1.00   40.00    --  101.04  63.00 -30.00   83
 36  \w     75.00 158.00   1.00   40.00    --  101.04  63.00 -60.00   83
 37  \w     68.00 158.00   1.00   40.00    --  101.04  77.00-150.00   90
 38  \w     68.00 158.00   1.00   40.00    --  101.04  77.00  60.00   90
 39  \w     31.00 127.00   1.00   40.00    --  101.04 -63.00 150.00   96
 40  \w     68.00 158.00   1.00   40.00    --  101.04  77.00-180.00   90
 41  \w     68.00 158.00   1.00   40.00    --  101.04  77.00 -60.00   90
 42  \w     68.00 158.00   1.00   40.00    --  101.04  77.00 120.00   90
 43  \w     68.00 158.00   1.00   40.00    --  101.04  77.00 -90.00   90
 44  \w     68.00 158.00   1.00   40.00    --  101.04  77.00   0.00   90
 45  \w     27.00 113.00   1.00   40.00    --  101.04-111.00-180.00   86
 46  \w     68.00 158.00   1.00   40.00    --  101.04  77.00  90.00   90
 47  \w     68.00 158.00   1.00   40.00    --  101.04  77.00-120.00   90
 48  \w     27.00 113.00   1.00   40.00    --  101.04-111.00  60.00   86
 49  \w     75.00 158.00   1.00   40.00    --  101.04  50.00  90.00   83
 50  \w     76.00 158.00   1.00   40.00    --  101.04  62.00  22.67   82
;
_diffrn_measurement_device         'four-circle diffractometer'
_diffrn_measurement_device_type    'SuperNova, Single source at offset/far, Eos'
_diffrn_measurement_method         '\w scans'
_diffrn_orient_matrix_type        
 'CrysAlisPro convention (1999,Acta A55,543-557)'
_diffrn_orient_matrix_UB_11        -0.0617076000
_diffrn_orient_matrix_UB_12        0.0845077000
_diffrn_orient_matrix_UB_13        -0.0697058000
_diffrn_orient_matrix_UB_21        -0.1032947000
_diffrn_orient_matrix_UB_22        -0.0181982000
_diffrn_orient_matrix_UB_23        0.0693539000
_diffrn_orient_matrix_UB_31        0.0365152000
_diffrn_orient_matrix_UB_32        0.0912947000
_diffrn_orient_matrix_UB_33        0.0783770000
_diffrn_radiation_monochromator    mirror
_diffrn_radiation_probe            x-ray
_diffrn_radiation_type             'Mo K\a'
_diffrn_radiation_wavelength       0.71073
_diffrn_source                     'micro-focus sealed X-ray tube'
_diffrn_source_type                'SuperNova (Mo) X-ray Source'
_reflns_Friedel_coverage           0.000
_reflns_Friedel_fraction_full      .
_reflns_Friedel_fraction_max       .
_reflns_number_gt                  111
_reflns_number_total               111
_reflns_special_details
;
 Reflections were merged by SHELXL according to the crystal
 class for the calculation of statistics and refinement.
 
 _reflns_Friedel_fraction is defined as the number of unique
 Friedel pairs measured divided by the number that would be
 possible theoretically, ignoring centric projections and
 systematic absences.
;
_reflns_threshold_expression       'I > 2\s(I)'
_computing_cell_refinement         'CrysAlisPro 1.171.39.46 (Rigaku OD, 2018)'
_computing_data_collection         'CrysAlisPro 1.171.39.46 (Rigaku OD, 2018)'
_computing_data_reduction          'CrysAlisPro 1.171.39.46 (Rigaku OD, 2018)'
_computing_molecular_graphics      'Olex2 1.5-alpha (Dolomanov et al., 2009)'
_computing_publication_material    'Olex2 1.5-alpha (Dolomanov et al., 2009)'
_computing_structure_refinement    'SHELXL 2016/6 (Sheldrick, 2015)'
_computing_structure_solution
;
Superflip  (Palatinus & Chapuis, 2007;Palatinus & van der Lee, 2008;
Palatinus et al., 2012)
;
_refine_diff_density_max           0.156
_refine_diff_density_min           -0.221
_refine_diff_density_rms           0.041
_refine_ls_extinction_coef         .
_refine_ls_extinction_method       none
_refine_ls_goodness_of_fit_ref     1.346
_refine_ls_hydrogen_treatment      undef
_refine_ls_matrix_type             full
_refine_ls_number_parameters       3
_refine_ls_number_reflns           111
_refine_ls_number_restraints       0
_refine_ls_R_factor_all            0.0096
_refine_ls_R_factor_gt             0.0096
_refine_ls_restrained_S_all        1.346
_refine_ls_shift/su_max            0.000
_refine_ls_shift/su_mean           0.000
_refine_ls_structure_factor_coef   Fsqd
_refine_ls_weighting_details      
 'w=1/[\s^2^(Fo^2^)+(0.0178P)^2^] where P=(Fo^2^+2Fc^2^)/3'
_refine_ls_weighting_scheme        calc
_refine_ls_wR_factor_gt            0.0267
_refine_ls_wR_factor_ref           0.0267
_refine_special_details            ?
_olex2_refinement_description
;
;
_atom_sites_solution_hydrogens     .
_atom_sites_solution_primary       iterative
_atom_sites_solution_secondary     ?
loop_
  _atom_site_label
  _atom_site_type_symbol
  _atom_site_fract_x
  _atom_site_fract_y
  _atom_site_fract_z
  _atom_site_U_iso_or_equiv
  _atom_site_adp_type
  _atom_site_occupancy
  _atom_site_site_symmetry_order
  _atom_site_calc_flag
  _atom_site_refinement_flags_posn
  _atom_site_refinement_flags_adp
  _atom_site_refinement_flags_occupancy
  _atom_site_disorder_assembly
  _atom_site_disorder_group
 Cl1 Cl 0.000000 0.000000 0.000000 0.01793(4) Uani 1 48 d S T P . .
 Na1 Na 0.500000 0.000000 0.000000 0.02129(6) Uani 1 48 d S T P . .

loop_
  _atom_site_aniso_label
  _atom_site_aniso_U_11
  _atom_site_aniso_U_22
  _atom_site_aniso_U_33
  _atom_site_aniso_U_23
  _atom_site_aniso_U_13
  _atom_site_aniso_U_12
 Cl1 0.01793(4) 0.01793(4) 0.01793(4) 0.000 0.000 0.000
 Na1 0.02129(6) 0.02129(6) 0.02129(6) 0.000 0.000 0.000

_geom_special_details
;
 All esds (except the esd in the dihedral angle between two l.s. planes)
 are estimated using the full covariance matrix.  The cell esds are taken
 into account individually in the estimation of esds in distances, angles
 and torsion angles; correlations between esds in cell parameters are only
 used when they are defined by crystal symmetry.  An approximate (isotropic)
 treatment of cell esds is used for estimating esds involving l.s. planes.
;
loop_
  _geom_bond_atom_site_label_1
  _geom_bond_atom_site_label_2
  _geom_bond_distance
  _geom_bond_site_symmetry_2
  _geom_bond_publ_flag
 Cl1 Na1 2.82054(3) 73_455 ?
 Cl1 Na1 2.82054(3) 1_455 ?
 Cl1 Na1 2.82054(3) . ?
 Cl1 Na1 2.82054(3) 49_455 ?
 Cl1 Na1 2.82054(3) 49_454 ?
 Cl1 Na1 2.82054(3) 73_445 ?
 Na1 Na1 3.98885(4) 73 ?
 Na1 Na1 3.98885(4) 49_454 ?
 Na1 Na1 3.98885(4) 25_544 ?
 Na1 Na1 3.98885(4) 25 ?
 Na1 Na1 3.98885(4) 73_445 ?
 Na1 Na1 3.98885(4) 49 ?

loop_
  _geom_angle_atom_site_label_1
  _geom_angle_atom_site_label_2
  _geom_angle_atom_site_label_3
  _geom_angle
  _geom_angle_site_symmetry_1
  _geom_angle_site_symmetry_3
  _geom_angle_publ_flag
 Na1 Cl1 Na1 90.0 73_455 . ?
 Na1 Cl1 Na1 180.0 49_454 49_455 ?
 Na1 Cl1 Na1 90.0 49_454 73_445 ?
 Na1 Cl1 Na1 90.0 1_455 49_455 ?
 Na1 Cl1 Na1 90.0 . 73_445 ?
 Na1 Cl1 Na1 90.0 1_455 73_445 ?
 Na1 Cl1 Na1 90.0 73_455 49_454 ?
 Na1 Cl1 Na1 90.0 73_455 1_455 ?
 Na1 Cl1 Na1 90.0 . 49_454 ?
 Na1 Cl1 Na1 180.0 73_455 73_445 ?
 Na1 Cl1 Na1 90.0 1_455 49_454 ?
 Na1 Cl1 Na1 180.0 . 1_455 ?
 Na1 Cl1 Na1 90.0 73_455 49_455 ?
 Na1 Cl1 Na1 90.0 . 49_455 ?
 Na1 Cl1 Na1 90.0 49_455 73_445 ?
 Cl1 Na1 Cl1 90.0 73 . ?
 Cl1 Na1 Cl1 180.0 49_554 49 ?
 Cl1 Na1 Cl1 90.0 49_554 73_545 ?
 Cl1 Na1 Cl1 90.0 1_655 49 ?
 Cl1 Na1 Cl1 90.0 . 73_545 ?
 Cl1 Na1 Cl1 90.0 1_655 73_545 ?
 Cl1 Na1 Cl1 90.0 73 49_554 ?
 Cl1 Na1 Cl1 90.0 73 1_655 ?
 Cl1 Na1 Cl1 90.0 . 49_554 ?
 Cl1 Na1 Cl1 180.0 73 73_545 ?
 Cl1 Na1 Cl1 90.0 1_655 49_554 ?
 Cl1 Na1 Cl1 180.0 . 1_655 ?
 Cl1 Na1 Cl1 90.0 73 49 ?
 Cl1 Na1 Cl1 90.0 . 49 ?
 Cl1 Na1 Cl1 90.0 49 73_545 ?
 Cl1 Na1 Na1 45.0 73 73 ?
 Cl1 Na1 Na1 90.0 1_655 25_544 ?
 Cl1 Na1 Na1 45.0 . 73_445 ?
 Cl1 Na1 Na1 135.0 . 73 ?
 Cl1 Na1 Na1 45.0 73_545 25_544 ?
 Cl1 Na1 Na1 135.0 49 25_544 ?
 Cl1 Na1 Na1 90.0 49_554 73_445 ?
 Cl1 Na1 Na1 45.0 49_554 49_454 ?
 Cl1 Na1 Na1 45.0 49_554 25_544 ?
 Cl1 Na1 Na1 135.0 49_554 49 ?
 Cl1 Na1 Na1 135.0 73 73_445 ?
 Cl1 Na1 Na1 90.0 73_545 49_454 ?
 Cl1 Na1 Na1 135.0 1_655 73_445 ?
 Cl1 Na1 Na1 135.0 73_545 25 ?
 Cl1 Na1 Na1 90.0 73 49 ?
 Cl1 Na1 Na1 90.0 49_554 73 ?
 Cl1 Na1 Na1 45.0 1_655 49 ?
 Cl1 Na1 Na1 135.0 . 49 ?
 Cl1 Na1 Na1 45.0 49 49 ?
 Cl1 Na1 Na1 90.0 49 73 ?
 Cl1 Na1 Na1 45.0 73 25 ?
 Cl1 Na1 Na1 135.0 73_545 73 ?
 Cl1 Na1 Na1 90.0 1_655 25 ?
 Cl1 Na1 Na1 135.0 49_554 25 ?
 Cl1 Na1 Na1 45.0 49 25 ?
 Cl1 Na1 Na1 135.0 73 25_544 ?
 Cl1 Na1 Na1 90.0 73 49_454 ?
 Cl1 Na1 Na1 90.0 49 73_445 ?
 Cl1 Na1 Na1 135.0 1_655 49_454 ?
 Cl1 Na1 Na1 90.0 . 25_544 ?
 Cl1 Na1 Na1 135.0 49 49_454 ?
 Cl1 Na1 Na1 45.0 . 49_454 ?
 Cl1 Na1 Na1 45.0 1_655 73 ?
 Cl1 Na1 Na1 45.0 73_545 73_445 ?
 Cl1 Na1 Na1 90.0 . 25 ?
 Cl1 Na1 Na1 90.0 73_545 49 ?
 Na1 Na1 Na1 60.0 73 25 ?
 Na1 Na1 Na1 60.0 73 49 ?
 Na1 Na1 Na1 180.0 49 49_454 ?
 Na1 Na1 Na1 120.0 73 25_544 ?
 Na1 Na1 Na1 60.0 25_544 49_454 ?
 Na1 Na1 Na1 60.0 73_445 49_454 ?
 Na1 Na1 Na1 120.0 25 49_454 ?
 Na1 Na1 Na1 180.0 25_544 25 ?
 Na1 Na1 Na1 120.0 73_445 49 ?
 Na1 Na1 Na1 120.0 73 49_454 ?
 Na1 Na1 Na1 180.0 73 73_445 ?
 Na1 Na1 Na1 120.0 73_445 25 ?
 Na1 Na1 Na1 60.0 25_544 73_445 ?
 Na1 Na1 Na1 120.0 25_544 49 ?
 Na1 Na1 Na1 60.0 49 25 ?

loop_
  _diffrn_refln_index_h
  _diffrn_refln_index_k
  _diffrn_refln_index_l
  _diffrn_refln_intensity_net
  _diffrn_refln_intensity_u
  _diffrn_refln_scale_group_code
 -1 1 1 52001.5 1260.87 1
 -1 1 1 57459.1 1399.88 4
 -1 -1 1 54178.9 1470.93 12
 -1 -1 -1 56494.8 1510.86 10
 -1 1 1 51361.7 1257.69 9
 -1 -1 1 55642.1 1488.81 11
 1 -1 -1 56701.4 1393.05 11
 -1 1 -1 50958.1 1480.51 12
 -1 -1 1 53280.7 1503.46 10
 1 1 -1 53624.4 1495.6 2
 1 -1 1 52786.2 1197.67 9
 -1 -1 -1 54885.2 1469.74 9
 1 -1 -1 55661.4 1379.77 4
 1 1 1 55163.7 1499.45 10
 1 1 1 55095.2 1098.79 12
 1 -1 1 52619.2 1494.86 4
 -1 1 1 54233 1377.65 3
 1 1 -1 52421.3 1440.07 4
 1 1 -1 52975.4 1454.03 12
 -1 -1 -1 54855.3 1099.64 11
 1 1 -1 55093.4 1517.06 10
 1 1 -1 53923.6 1437.96 3
 -1 1 1 56905.2 1400.11 12
 1 -1 1 52097.3 1489.2 12
 -1 1 -1 52605.6 1193.1 9
 -1 1 -1 52670 1195.72 1
 -1 -1 -1 56723.6 1486.84 1
 1 -1 -1 54570.7 1361.47 3
 1 1 1 54686.4 1099.65 11
 -1 -1 1 51804 1477.28 2
 -1 -1 1 54284.2 1461.39 4
 1 -1 1 54998.7 1205.5 1
 1 1 1 55870.5 1099.12 4
 -1 -1 -1 55411.4 1497.26 2
 1 -1 -1 49661.3 1212.56 10
 -1 1 1 54595 1388.83 11
 -1 -1 -1 53959.6 1092.72 3
 1 1 -1 53969.4 1467.77 11
 1 -1 -1 54682.9 1375.77 12
 1 -1 -1 50663.5 1204.35 2
 -1 -1 1 53610.1 1441.17 3
 1 1 1 54759.6 1092.74 3
 -1 1 -1 50533.7 1464.32 4
 1 1 1 58248.8 1521.7 2
 0 -2 0 937906 15891.6 10
 -2 0 0 999999 16299.8 11
 0 0 -2 941421 16189.4 9
 0 2 0 935690 16002.7 4
 0 0 -2 936621 16184.1 1
 2 0 0 949321 16242.4 11
 0 -2 0 924281 15967 3
 0 0 2 944697 16069.5 12
 0 0 2 960289 16214.9 1
 0 0 -2 936514 16083 12
 2 0 0 934197 16166.6 10
 -2 0 0 977444 16250.6 3
 2 0 0 934448 16173.8 2
 0 0 2 909454 16068.9 11
 -2 0 0 955943 16216.7 10
 -2 0 0 990772 16290.8 12
 0 0 -2 927283 16037.2 3
 0 -2 0 944560 16022.1 11
 0 0 -2 913628 16088.2 11
 0 0 2 951222 16201 9
 -2 0 0 957069 16227.8 2
 2 0 0 952494 16240.5 12
 0 -2 0 942966 15983.2 4
 0 0 -2 940160 16059.1 4
 0 2 0 930412 16027.4 12
 0 -2 0 942048 16004.7 12
 -2 0 0 992717 16282.1 4
 -2 2 0 670202 10770.7 20
 0 2 2 668170 11573.5 1
 -2 0 2 652067 10703.7 7
 2 0 2 665495 11562.1 1
 -2 2 0 665036 11689 3
 2 0 2 614635 11472.5 12
 -2 2 0 673022 10742.3 26
 -2 2 0 652730 10734.5 25
 -2 2 0 598914 10736 10
 0 2 -2 652935 10680.7 5
 -2 -2 0 663239 11873.1 2
 2 2 0 634879 11296.2 3
 0 2 -2 651912 10711.4 6
 -2 0 2 648648 11658 3
 0 -2 -2 683274 11473.1 2
 2 2 0 631979 11767.9 10
 -2 0 2 661486 11690.4 4
 0 2 2 663283 10734.4 17
 2 -2 0 670638 11709.8 11
 0 -2 2 649725 11716.7 3
 2 0 2 699274 10739.6 22
 0 -2 -2 640613 11530.7 9
 2 0 -2 618389 11616 10
 2 0 -2 677512 11765 4
 -2 2 0 650611 10701.7 16
 0 -2 -2 615276 10760.6 3
 0 2 -2 687011 10738.3 25
 2 0 -2 613754 11604.4 2
 2 2 0 651235 11349.3 4
 2 2 0 657752 11376.9 11
 2 0 -2 647604 11715.6 12
 0 2 -2 612821 11554.1 2
 0 -2 2 656977 11741.1 4
 0 2 -2 627542 11602.9 10
 2 0 -2 674957 11806.7 11
 2 0 -2 666931 10715.9 15
 0 2 -2 620825 11682.7 3
 2 0 2 637741 11406.1 3
 0 2 -2 626861 11771.7 11
 0 2 -2 631540 11771 4
 0 -2 -2 635846 10782 4
 -2 0 -2 669658 10717.9 6
 -2 -2 0 659061 11348.5 4
 2 -2 0 665089 10745.1 13
 2 0 2 611994 11461 4
 -2 0 -2 644475 11524.8 9
 2 2 0 644293 11342.5 12
 0 -2 -2 640135 10787.4 11
 0 2 -2 654070 10728.6 23
 2 2 0 665882 10710.7 19
 -2 0 2 655692 11707.6 12
 0 -2 2 641718 10697.3 22
 -2 2 0 649342 10699.2 21
 -2 0 -2 672283 11808.9 10
 0 2 -2 696478 10740.7 26
 -2 -2 0 649285 11838.5 10
 0 2 2 653992 11550.9 9
 0 -2 2 653007 11807.8 11
 -2 0 2 650844 11713.8 11
 0 2 -2 688887 10746.2 24
 0 -2 2 648576 10696.4 7
 2 0 -2 692273 10733.4 24
 -2 2 0 636474 10754.7 2
 2 0 2 646433 11436.1 11
 2 0 2 623385 10733.7 17
 -2 -2 0 647520 11327.2 3
 2 0 -2 687226 10730.3 23
 0 2 -2 632269 11744.4 12
 2 0 -2 662583 10721.6 14
 2 0 2 641773 11543.5 9
 -2 0 -2 694930 11842.9 2
 2 2 0 630421 11758.5 2
 -2 0 2 617496 10722.9 26
 -2 0 -2 645679 10736.5 20
 0 2 2 639941 10774.7 3
 -2 0 -2 666158 10697.9 5
 -2 2 0 643183 10732.4 24
 0 -2 -2 650794 11554.6 1
 -2 0 -2 655242 11539.2 1
 -2 -2 0 651186 11351.5 12
 -2 -2 0 650446 11360.4 11
 -2 2 0 661481 11711.8 11
 2 0 -2 666115 11708.1 3
 0 -2 -2 631630 10780.5 12
 0 2 2 650585 10786.5 11
 0 -2 2 662834 11792 12
 2 -2 0 648457 11656.4 3
 2 2 -2 458882 9212.17 2
 2 -2 -2 476403 7913.16 15
 2 2 2 453128 7985.49 4
 2 2 -2 478667 7925.39 25
 2 -2 2 466863 8337.13 9
 2 -2 2 471574 9124.36 3
 2 -2 2 475734 7945.7 13
 -2 2 -2 473245 7891.47 6
 -2 -2 2 472727 9112.8 12
 -2 2 -2 462341 7951.68 20
 2 -2 -2 476918 7847.26 14
 2 2 2 464041 7938.24 17
 2 -2 -2 466217 8786.31 3
 -2 -2 2 469436 9243.17 10
 2 2 2 450226 7983.1 3
 -2 2 -2 459271 7943.3 23
 -2 -2 2 471036 9139.32 4
 2 2 -2 470265 9123.67 11
 2 2 -2 473781 7865.76 19
 -2 -2 -2 478369 9134.37 9
 -2 2 2 490230 8884.52 4
 2 -2 2 466070 9197.77 4
 2 2 2 424610 7991.18 4
 2 2 -2 484119 7930 23
 2 -2 -2 435686 8347.96 2
 2 2 -2 479423 7923.33 24
 2 -2 2 474224 8349.24 1
 -2 2 -2 483777 7965.29 25
 -2 2 2 472271 7852.91 18
 2 2 -2 464186 7893.97 6
 -2 2 2 465094 7927.32 21
 -2 -2 2 461738 9035.7 3
 2 2 -2 473145 9117.2 12
 2 2 2 438122 7997.64 11
 2 -2 -2 478540 8846.17 12
 2 2 2 491169 7860.15 19
 -2 2 2 485776 8893.9 11
 -2 2 2 468701 7895.4 16
 2 -2 2 459394 9196.27 12
 -2 2 2 461068 7875.74 26
 -2 2 2 453975 8534.86 9
 -2 -2 -2 484117 9156.66 1
 2 2 2 439520 7987.7 12
 -2 2 2 481389 8845.52 3
 -2 2 -2 458951 7940.84 24
 -2 -2 -2 474593 9197.59 2
 -2 2 2 492470 7908.79 17
 2 2 -2 460241 9002.54 3
 -2 -2 2 469991 7867.23 22
 -2 2 2 488785 8899.31 12
 2 -2 -2 475039 8854.92 11
 -2 2 -2 474460 7941.88 26
 -2 -2 -2 468531 9183.03 10
 -2 2 2 461446 8548.76 1
 -2 2 -2 470340 7909.61 5
 -2 -2 2 462026 9192.4 2
 -2 -2 2 482169 9183.34 11
 2 -2 -2 428990 8353.17 10
 2 2 -2 463085 9235.68 10
 2 2 -2 467002 9078.97 4
 2 2 -2 474998 7895.77 14
 -2 -2 2 473911 7915.24 7
 -2 2 2 444653 7873.39 25
 -2 2 2 473750 7914.79 8
 2 -2 -2 479679 8832.2 4
 2 -2 -2 484881 7866.14 23
 -2 -2 2 476855 7871.66 16
 2 -2 2 470313 7916.76 22
 -3 1 -1 16436.4 469.033 5
 -1 1 -3 17114.4 964.408 12
 1 3 -1 16024.6 861.161 3
 1 -3 -1 16199.1 777.337 3
 1 -3 -1 15231.7 769.166 4
 -1 1 -3 17664.4 485.945 26
 1 3 -1 16539.5 481.659 6
 -3 1 -1 16819.3 451.947 6
 -3 1 -1 16840 877.687 2
 1 1 3 16242.3 688.18 11
 -1 1 -3 16676.8 500.446 20
 1 1 -3 16551.1 485.83 23
 -1 1 3 17151.5 838.349 12
 1 -3 1 16563.9 493.552 13
 -1 1 3 16376.7 467.592 8
 3 -1 -1 16893.1 470.325 14
 1 -1 3 15540.9 911.72 12
 3 1 -1 17506.5 494.825 23
 -3 1 -1 16649.6 457.065 16
 1 1 3 16598.9 491.146 18
 -1 3 -1 15119.1 929.346 12
 -1 -3 -1 16214 909.126 1
 -1 -1 3 16812.9 966.473 11
 -3 -1 -1 17429.5 1023.7 2
 1 3 1 17015.6 469.446 21
 3 -1 -1 16169.9 456.026 13
 -3 -1 1 16555.3 941.564 11
 1 3 -1 16859.4 473.049 19
 1 1 -3 16408.3 477.644 14
 -1 -1 3 17228.1 975.449 12
 3 1 1 16447.8 481.885 17
 1 1 3 16814.1 497.197 17
 -1 -3 1 15867.8 899.071 10
 -1 1 3 16525.7 449.855 17
 3 1 -1 14965.6 932.097 2
 -3 1 1 16945.1 990.379 4
 1 1 -3 14221.9 925.835 2
 1 1 -3 17122.7 488.704 24
 -3 1 -1 17915.6 1001.5 11
 1 1 -3 17278.3 490.312 25
 -1 3 -1 16549.5 460.155 19
 1 -3 -1 17117.5 693.061 1
 1 -1 -3 14908 776.013 3
 1 -1 -3 16390.3 475.302 14
 -3 1 -1 15888.2 709.002 9
 -3 1 1 15495.4 796.734 2
 -1 1 -3 16708.5 454.243 5
 -1 3 1 16596.1 473.434 8
 -1 3 -1 16922.4 480.707 20
 -1 -3 -1 16224.4 581.477 11
 -3 1 1 15879.7 813.589 10
 -3 -1 1 16568.5 937.762 4
 3 -1 -1 15844.1 944.796 12
 -1 -1 -3 17127.2 467.334 6
 -1 1 -3 16670.1 482.903 24
 3 1 1 16131.4 825.859 11
 3 -1 1 17071 973.015 11
 3 -1 1 16744.1 479.731 22
 -3 -1 1 16493.1 497.791 26
 -3 -1 1 16284.1 442.603 7
 -1 3 -1 15578.3 928.441 4
 3 1 -1 17734.2 974.318 4
 -1 3 -1 16425 486.749 24
 -3 -1 -1 16913.9 467.513 16
 1 -1 3 16461 919.806 3
 -1 1 3 16586.1 816.74 3
 1 1 -3 16478 992.647 10
 3 -1 -1 16374.5 488.712 15
 -3 1 1 15847.8 496.493 26
 -3 1 1 17247.1 995.752 11
 1 1 -3 15317.5 935.532 11
 -1 1 3 16778.7 835.4 11
 -3 -1 -1 16876.7 1012.88 10
 1 -3 -1 15293.1 482.306 10
 1 -3 1 17331.9 980.48 12
 1 1 3 15499.8 669.79 12
 -3 -1 -1 15443.9 822.006 11
 3 -1 -1 15382.8 780.603 10
 1 3 -1 17279 466.195 25
 -1 -3 1 16258.6 861.799 3
 -1 1 3 16507.9 491.894 18
 1 -1 3 16337.4 463.768 22
 1 1 -3 16486.5 449.311 15
 -1 -3 1 14887.1 865.386 2
 -1 -3 1 17125.2 497.402 7
 -1 1 -3 17139.7 484.201 6
 1 3 -1 15682.5 859.874 4
 1 3 -1 15349.3 872.074 11
 -1 3 -1 15969.8 484.384 23
 -1 -3 -1 16505.6 582.426 12
 1 3 1 16523.5 872.935 2
 -1 -1 3 16355.3 940.388 4
 1 3 1 15946.5 583.066 4
 1 3 -1 15871.5 873.052 12
 3 1 1 17348.4 498.676 15
 1 -1 -3 15864.4 812.341 4
 -1 -1 -3 15885.3 926.761 9
 3 -1 -1 15333.3 775.183 2
 -1 3 -1 16743.6 459.309 6
 1 3 1 17211.9 888.734 10
 -1 1 3 15843.1 898.908 1
 -1 1 -3 16016.3 474.686 23
 3 -1 1 16781 496.122 15
 1 1 3 16345 938.979 9
 -3 1 1 16999.1 486.888 16
 1 -3 1 16059.9 941.913 4
 3 -1 -1 17930.3 505.11 23
 1 -3 -1 15665.1 669.834 9
 3 1 -1 17170.5 499.14 14
 1 1 3 15472.7 660.858 3
 3 -1 -1 15146.4 922.44 4
 -3 1 1 16756.4 512.803 25
 -1 3 1 16266.7 482.277 19
 -3 1 -1 15339.9 929.45 3
 1 -3 1 16302.4 934.565 3
 1 3 -1 16127.2 908.173 2
 1 3 1 16011.3 589.945 12
 -1 3 -1 15217 674.852 10
 1 -3 -1 14559 761.314 12
 3 1 -1 17938.3 501.418 24
 -1 -1 -3 14284 655.373 4
 -1 -3 -1 16438.2 567.81 3
 -3 1 1 16047.7 964.098 12
 1 -3 -1 16704.5 795.488 11
 3 1 -1 17372.8 979.577 12
 -1 1 -3 17433.4 960.716 4
 3 -1 1 16150.6 465.393 13
 1 -1 3 16920.4 466.499 18
 3 1 -1 15478 949.946 10
 1 -1 3 16594.3 497.969 13
 1 1 -3 17304.6 974.804 12
 -3 1 -1 16544.4 508.96 20
 1 -1 -3 16409.5 831.382 11
 3 -1 -1 16981.9 981.09 11
 3 1 1 17016.3 997.629 2
 1 3 1 16959.5 484.739 19
 -1 1 3 16135.5 903.953 9
 -3 1 1 16669.3 502.234 20
 -3 1 -1 16207 499.506 24
 1 1 -3 17140.9 951.895 3
 1 -1 -3 15701.7 809.689 12
 1 3 -1 16841.7 488.284 21
 -3 -1 1 17207.6 1025.5 10
 -1 -3 1 17020.6 494.003 22
 -1 -1 3 16391.1 484.465 7
 -1 3 -1 14638.1 665.217 2
 -1 -3 1 16549.7 886.921 12
 -1 -3 -1 16364.8 873.594 10
 -1 3 -1 16946 482.893 21
 -1 3 -1 16673.2 485.454 26
 1 -3 1 15808.9 476.67 22
 -1 3 1 16211.5 434.49 5
 3 1 1 16036.6 822.514 12
 1 -1 3 16700.9 954.941 11
 1 -1 3 16035.9 868.435 9
 1 1 3 18040.8 983.166 1
 3 1 1 16678.4 834.286 4
 1 -3 -1 16376 494.825 2
 1 3 -1 15794.5 902.51 10
 -3 -1 1 16729.9 936.297 3
 3 1 -1 16579.8 473.319 15
 3 1 1 17129.2 474.028 19
 -3 -1 1 16759.2 482.054 16
 -1 -3 1 16082.6 880.143 11
 -1 -1 3 16410.7 935.212 3
 -1 3 -1 17376.3 501.036 25
 1 -1 3 17447.2 944.728 4
 -3 1 -1 16174.8 860.123 10
 1 -3 -1 16500.4 497.655 13
 3 1 -1 16842.1 967.294 11
 -1 -3 -1 16483.1 579.46 4
 -1 3 -1 16311.7 476.789 5
 -3 -1 -1 16805.7 842.233 3
 -3 1 1 15223.8 935.595 3
 -1 -3 -1 15485.8 848.066 2
 1 3 1 16338.5 482.548 17
 1 1 3 15778.6 661.279 4
 -1 1 -3 16192.7 474.498 25
 1 1 -3 16136.8 454.16 6
 -3 1 -1 17078.3 506.941 26
 1 3 -1 17429.1 471.306 24
 -1 1 3 15753.3 798.678 4
 1 3 -1 15887.4 455.029 23
 1 -3 1 17205.6 489.899 7
 -3 -1 1 16218.1 934.115 12
 -1 3 1 16639.5 493.472 21
 3 1 1 17326.2 1004.52 10
 -1 3 1 16703.6 498.082 17
 1 -1 -3 15865.3 477.992 15
 -3 -1 1 17160.8 1023.62 2
 3 -1 -1 16188.3 941.773 3
 1 -1 3 15287.2 853.015 1
 -1 3 1 15828.6 480.218 20
 1 1 -3 15362 916.425 4
 1 -1 3 16138.3 471.642 17
 3 1 -1 17798.2 967.735 3
 3 -1 1 17089.9 949.522 3
 -3 1 -1 16418.7 719.94 1
 3 1 1 16102.7 816.424 3
 -3 1 -1 15849.2 494.476 25
 -1 -3 1 17775 907.895 4
 -1 -1 -3 16391.7 943.095 1
 -1 -1 -3 14711.5 667.397 12
 1 3 -3 11692.4 936.122 3
 3 1 3 13298.4 788.578 4
 -3 1 3 13748.1 895.835 1
 -1 3 3 13493.4 471.263 21
 -1 3 -3 13269.9 1030.64 12
 -3 3 -1 13805.8 416.012 8
 -1 -3 3 13050 992.535 4
 -3 -3 1 13206.3 893.818 3
 1 3 -3 13306.4 445.012 5
 3 3 1 13444.2 457.649 17
 -3 -1 3 13875 1019.65 12
 -1 -3 -3 13423.8 962.119 1
 -3 1 -3 13197.5 476.735 23
 1 -3 3 13285.2 484.392 13
 3 1 -3 13664.4 493.053 14
 3 1 -3 13869.9 494.724 23
 -3 -3 -1 14541.2 1077.06 2
 -1 -3 -3 15086.6 990.653 2
 3 1 -3 14442.3 1021.68 3
 3 -3 -1 13228.1 396.949 22
 3 -1 -3 14435.8 489.67 24
 1 3 -3 13740.7 415.213 19
 -3 3 1 13163.8 487.023 24
 3 3 1 14685.9 488.684 19
 -3 -1 -3 14378.1 998.212 9
 -3 3 -1 14166.1 529.664 20
 -3 -1 -3 13826 498.894 20
 -3 -1 3 14464.2 1044.99 11
 -3 3 1 13349.3 458.849 9
 3 1 -3 13059.1 420.052 6
 3 3 -1 14271.7 413.713 15
 3 -1 3 14076.2 874.619 1
 -3 1 -3 12972.3 469.876 24
 3 -1 3 14327.3 496.621 13
 -3 -1 3 14084.9 450.978 16
 3 -1 3 13834.3 490.851 22
 -3 -1 -3 13089.9 406.938 25
 -3 1 -3 13669.5 478.984 6
 3 1 3 13402.4 773.779 11
 3 -1 3 12887.4 961.367 4
 3 3 1 13218.5 698.599 3
 -1 -3 3 13690.3 443.069 13
 -3 -3 -1 13787.7 718.932 3
 3 1 -3 13778.5 467.846 15
 -3 -3 1 12577.5 892.01 11
 -1 3 -3 13913.8 473.877 5
 3 -1 -3 13778.8 975.451 12
 -1 3 3 14251.3 496.79 8
 1 -3 -3 13792.5 696.576 3
 -3 -1 3 13717.7 482.961 7
 1 -3 3 13858.6 456.538 7
 -3 1 3 14737.4 1005.48 11
 1 3 -3 13563.9 491.149 23
 3 -1 -3 14876.4 951.044 2
 -1 3 -3 13826.8 484.007 6
 1 -3 3 13647.5 483.131 22
 -3 -1 -3 13709.1 474.503 5
 3 -1 3 13113.2 391.49 18
 -3 -1 -3 14308.6 1064.65 2
 -3 -1 3 13874.2 1007.69 4
 3 1 3 13528.4 805.915 12
 -3 -3 1 14792.9 1105.69 2
 -1 3 -3 14219.2 504.852 25
 1 3 -3 15111.7 1084.92 11
 1 -3 3 13687.6 1013.83 3
 -3 3 -1 13768.7 469.997 5
 3 3 -1 13914.9 456.155 24
 -1 -3 3 13674.5 1022.4 11
 3 -3 -1 13451.2 461.962 15
 -1 3 3 13941.6 700.209 3
 1 -3 -3 13787.3 875.564 9
 -3 -1 -3 13243.5 409.088 24
 -3 1 -3 13985.8 520.04 20
 3 3 -1 14263.1 483.055 14
 -1 3 3 13210.5 872.529 1
 -3 3 1 13742.6 492.797 21
 -1 3 -3 13987.6 1043.33 4
 3 3 -1 14709.7 467.921 23
 -3 1 -3 13265 840.724 1
 3 1 -3 13475.5 1006.34 4
 1 -3 3 15738.4 1098.12 4
 3 1 -3 13683 494.786 24
 3 1 -3 15313.1 1092.91 10
 1 -3 3 13237.1 790.469 9
 3 3 -1 14334.7 914.734 3
 -3 1 -3 14251.7 490.187 25
 3 -1 3 13959.4 1001.92 12
 3 -1 -3 13935.4 966.834 3
 -3 1 -3 12232.3 809.435 9
 -3 -3 1 13745.8 485.209 16
 3 -3 -1 14103.6 954.224 3
 -3 1 3 13172.2 486.388 26
 -3 3 -1 14101.3 464.746 21
 3 -3 1 13611.7 467.087 22
 3 -3 -1 13925.4 962.267 4
 -3 1 3 14457.1 488.306 8
 -3 3 1 13357.5 489.492 26
 -3 -1 -3 13750.6 400.691 16
 -3 1 -3 13515.6 477.506 5
 3 -1 -3 14114 485.089 14
 1 3 3 13406.6 417.467 21
 -3 3 -1 13574.5 509.566 24
 -1 -3 -3 13557.4 944.633 10
 -1 -3 3 13678.2 1020.25 12
 3 1 -3 12586.7 1000.79 2
 3 1 3 13864.4 402.7 19
 1 3 -3 15043.8 514.51 24
 1 -3 -3 13743.7 433.57 14
 3 3 -1 13932.2 930.803 12
 3 1 -3 14871.3 1072.61 11
 3 -1 3 12974.6 497.995 17
 3 3 -1 14071.1 939.179 11
 1 -3 -3 12554.9 837.949 1
 3 3 1 14206 433.071 21
 -1 -3 -3 14444 994.911 9
 -3 3 1 13774.7 519.144 20
 -3 1 -3 14548.8 1013.11 2
 -1 -3 3 14650.4 1022.76 3
 -3 1 3 13448.1 454.418 16
 -3 3 1 13460.3 491.268 25
 -3 3 -1 13654.8 463.228 16
 -1 3 -3 13718.1 495.654 26
 -3 -1 -3 16058.2 1062.49 1
 1 3 3 14022.9 506.512 17
 -3 3 1 13923.8 472.353 8
 -3 -1 -3 13410.6 1037.5 10
 -3 3 1 16008.9 1045.1 11
 3 -1 -3 15461.3 1037.23 11
 -3 -3 1 14189.6 1087.14 10
 -1 3 -3 13358.5 494.58 23
 3 1 3 13232.8 767.92 12
 -1 3 -3 13212.9 392.657 14
 -3 -3 -1 12680.5 703.748 12
 -3 -3 -1 14200.4 737.186 11
 3 1 3 13689.5 775.308 4
 3 1 -3 13176.7 1004.55 12
 3 -1 3 15264.2 992.159 3
 -3 1 3 14790.3 1000.74 3
 -3 1 -3 14436 483.809 26
 1 3 -3 14300.1 444.944 14
 1 -3 -3 13130.1 458.126 15
 -3 3 1 13594.9 485.531 16
 1 3 -3 14150.7 497.245 25
 1 3 -3 14541 1046.78 10
 -3 -3 1 13365 457.8 7
 -1 -3 3 14375.7 421.29 16
 -3 -3 1 13308.4 914.76 12
 -3 -3 -1 13834.7 478.734 16
 1 3 -3 14243.6 496.545 6
 3 3 1 13467.5 713.606 4
 -3 1 3 14930.2 1006.54 4
 1 3 -3 12556.6 973.065 2
 3 -1 -3 14145.2 483.878 23
 -3 3 -1 14718.3 523.394 26
 -3 1 3 14309.9 455.105 18
 3 3 -1 13572.9 907.02 4
 -3 3 -1 13944.4 642.622 10
 3 1 3 13852.9 512.315 17
 3 -3 1 13483.7 500.671 13
 3 -3 1 12675.9 982.574 11
 -3 3 1 14106.2 417.604 5
 -3 3 -1 13781.2 640.947 2
 1 -3 3 13238.3 1032.08 11
 1 -3 -3 14296.4 718.57 11
 -3 -3 1 15293 964.803 4
 1 -3 3 14050.9 1057.71 12
 3 3 1 13507.8 720.519 12
 3 -3 -1 14510.1 990.206 11
 1 3 -3 13577.6 1008.38 4
 3 -3 1 14376.8 1058.78 12
 -1 3 -3 13607 500.904 24
 -3 -1 3 13107.2 498.526 26
 -3 -3 -1 14443.3 1083.66 10
 -1 3 3 14300.2 499.594 17
 3 3 -1 12960.7 1003.94 2
 -1 -3 3 13248.6 479.3 7
 3 3 -1 12314.9 982.139 10
 -3 -1 -3 13901.5 413.91 26
 3 1 3 12794.8 748.488 3
 -3 3 -1 13966.4 423.657 6
 3 -1 -3 14912 1003.89 4
 -1 3 -3 13979.4 449.002 21
 -3 -1 3 14500.6 1018.4 3
 3 -3 1 13254.1 1017.91 4
 1 -3 3 13867.7 812.911 1
 -3 1 3 12512 858.706 9
 -3 3 1 12780.8 451.042 1
 1 3 3 14295.4 453.285 19
 -3 1 3 13724.7 970.771 12
 3 -3 -1 14799.3 995.703 12
 3 -3 1 13771.9 451.137 15
 3 3 1 13763 1029.32 2
 -3 3 -1 13403.5 505.575 25
 -3 -3 -1 13590.8 721.224 4
 3 3 1 13760.5 734.973 11
 3 -3 1 13016 974.077 3
 3 -1 -3 14054 497.367 15
 3 -1 3 14395.8 974.724 11
 3 3 1 13569.9 1028.58 10
 3 -3 -1 14505.7 513.407 13
 -3 3 1 14567.3 992.575 3
 -1 3 -3 13797.9 474.988 20
 -1 3 3 12945.4 863.784 9
 -1 3 3 13530 459.374 19
 -1 3 3 13517.2 701.67 11
 3 3 -1 13789.3 479.562 19
 1 3 -3 13306.9 1011.84 12
 3 -1 -3 12655.2 889.861 10
 -3 -3 -1 14786.2 444.01 7
 1 -3 -3 14398.9 711.308 4
 1 -3 -3 13811.7 703.392 12
 -3 1 -3 15683.9 1044.76 10
 -1 -3 3 13535.3 463.193 22
 -3 -3 -3 13769.1 499.986 20
 -3 3 -3 14149.7 515.708 6
 3 -3 -3 13531.2 975.799 3
 -3 3 3 12339.7 483.579 25
 3 -3 -3 13413.4 522.101 15
 -3 -3 3 13174.3 519.897 7
 -3 3 -3 13550.2 547.694 25
 3 -3 -3 13446.6 989.193 11
 -3 3 -3 12613.5 528.527 24
 -3 3 3 13440.4 508.942 16
 -3 -3 3 13364.2 481.014 16
 3 -3 -3 13384.6 467.427 14
 3 3 -3 13396.4 480.835 19
 -3 3 -3 13370.3 548.227 20
 3 3 -3 13603.1 509.701 14
 -3 3 -3 12973 537.332 23
 -3 -3 -3 14416.1 487.726 16
 3 3 -3 13186.1 518.266 24
 -3 3 3 13470.8 525.546 8
 -3 3 3 13669.9 987.568 3
 -3 3 3 11980.2 946.556 11
 3 3 3 13878.2 479.184 19
 -3 3 -3 13044.3 515.931 5
 3 3 -3 13237.1 502.769 6
 3 -3 3 13512.5 522.741 22
 3 -3 -3 14261.7 490.027 23
 -3 3 -3 12908.6 526.891 26
 3 3 -3 14159.3 536.396 23
 -3 3 3 12209.8 473.45 26
 3 -3 3 12953.7 532.054 13
 3 -3 -3 13756.4 985.309 4
 3 3 -3 13719.6 527.177 25
 3 3 3 13503.2 534.687 17
 3 -3 -3 13183.6 974.938 12
 -3 -3 3 13503 483.792 22
 0 4 0 370825 6175.71 17
 0 0 4 369254 7499.89 9
 0 4 0 348836 6077.47 23
 4 0 0 356692 7360.9 2
 0 -4 0 336745 6726.34 2
 0 4 0 349385 7028.44 4
 0 4 0 335441 7028.25 12
 0 -4 0 356003 7060.63 11
 0 0 4 365689 7237.32 11
 0 4 0 355263 6770.74 10
 0 4 0 359900 6076.4 26
 0 0 -4 345046 7170.21 12
 0 4 0 353305 6165.47 19
 0 -4 0 356604 7035.31 12
 0 4 0 354483 6760.93 2
 4 0 0 358672 7506.45 11
 -4 0 0 354627 6200.99 26
 0 0 -4 344168 7198.42 11
 -4 0 0 346249 6203.13 25
 0 0 -4 351255 7165.37 4
 -4 0 0 358740 7472.83 10
 0 0 4 360590 6196.45 18
 -4 0 0 380850 7552.28 2
 0 0 4 364629 7159.6 4
 -4 0 0 361302 6112.21 5
 -4 0 0 358744 7512.58 11
 0 0 -4 338145 7107.86 3
 0 0 4 354241 6129.8 7
 0 4 0 362521 6192.53 21
 0 0 4 360852 6106.18 17
 0 0 -4 356295 6176.85 14
 0 0 4 360492 6034.93 22
 4 0 0 348847 7337.2 10
 0 0 -4 367243 6116.71 25
 0 4 0 376823 6100.58 25
 0 4 0 330471 6047.03 20
 4 0 0 364508 7460.18 4
 4 0 0 373036 7483.22 3
 0 -4 0 357794 6168.62 22
 0 0 -4 365178 6111.43 6
 0 -4 0 355186 6997.31 4
 0 4 0 354812 6110.7 6
 4 0 0 358556 6212.52 15
 0 -4 0 345253 6761.66 10
 0 0 -4 371657 6124.43 24
 4 0 0 367837 6181.77 23
 0 4 0 354401 6080.33 24
 0 -4 0 349676 6965.67 3
 0 0 4 363586 7495.15 1
 0 0 4 355437 7185.7 12
 0 0 4 356582 7105.54 3
 -4 0 0 358480 6160.37 20
 0 -4 0 369066 6163.61 13
 4 0 0 360242 7485.76 12
 4 0 0 357636 6188.58 14
 -4 0 0 354114 6153.99 16
 0 0 -4 347274 6105.72 23
 -4 0 0 359476 7511.82 3
 -4 0 2 279237 4860.16 20
 2 -4 0 289080 6213.93 11
 -4 2 0 270530 5602.93 2
 0 4 2 289390 4964.15 17
 -4 -2 0 280154 6037.68 3
 0 4 -2 283121 4927.57 24
 2 -4 0 279692 4761.36 15
 -4 -2 0 264479 4876.46 26
 0 -2 4 278037 6134.63 1
 0 4 -2 271801 4906.65 23
 4 0 2 273746 6088.25 11
 0 -4 2 282674 6371.52 11
 -2 0 4 274440 4924.41 7
 0 -2 4 279667 4849.63 22
 4 -2 0 275501 4889.42 13
 -4 2 0 273514 4899.54 16
 0 -4 -2 272499 4781.44 15
 2 0 -4 278018 6250.94 11
 0 -2 -4 263648 5288.44 3
 -2 4 0 273577 4944.97 20
 -2 4 0 281812 4917.84 25
 0 2 -4 267195 6271.32 3
 4 -2 0 284761 4839.58 22
 -4 0 -2 265456 4890.22 24
 2 0 4 286564 4901.64 22
 -2 4 0 280939 4866.65 5
 0 -2 -4 266938 5316.96 12
 4 -2 0 288555 5552.87 2
 0 -2 4 288382 6414.24 4
 -4 -2 0 282930 4915.5 16
 0 4 -2 281476 4915.35 21
 -2 0 -4 276833 6190.83 9
 2 0 -4 285134 6265.53 12
 0 -2 4 276450 4922.72 13
 2 4 0 275582 5704.54 12
 0 -4 -2 277969 5931.82 9
 -4 -2 0 273227 4757.15 7
 -4 -2 0 284526 6086.59 4
 0 -2 -4 276411 4900 14
 0 -4 -2 274251 4831.28 22
 0 2 4 276647 5306.83 3
 2 0 -4 278992 4928.22 14
 -4 0 -2 282976 4830.22 16
 -4 0 2 267949 6206.2 2
 0 4 -2 280015 4841.89 19
 0 4 -2 264517 4767.68 20
 -2 0 4 276580 4753.18 16
 -2 -4 0 282235 6300.85 2
 4 2 0 283846 4923.76 19
 -4 0 -2 278729 6033.25 1
 2 0 -4 279098 4894.14 24
 -4 0 2 263350 4958.17 26
 4 2 0 285657 6049.78 3
 2 4 0 264837 5620.82 3
 -4 2 0 268701 4965.74 25
 -4 0 2 278329 4908.35 16
 -2 0 4 280568 6225.91 12
 -4 2 0 277109 4989.85 20
 -2 0 -4 260710 5902.43 12
 4 0 -2 270016 6162.99 2
 -4 0 2 284118 6324.85 10
 -2 0 4 283221 6218.64 4
 2 -4 0 293106 6177.81 3
 4 2 0 272521 4798.93 17
 2 0 -4 278929 4762.37 6
 -2 -4 0 293085 4951.36 7
 0 2 4 278086 4954.06 18
 2 0 4 275516 5928.26 12
 0 2 -4 277123 4901.88 6
 0 2 -4 283639 4951.75 24
 -2 4 0 282941 4826.52 8
 -2 0 4 281216 6255.78 11
 0 4 -2 274669 5989.82 2
 -4 2 0 271020 5599.77 10
 0 -4 -2 271866 5618.4 10
 0 -4 2 290950 6379.8 12
 0 4 2 283011 4910.17 21
 4 -2 0 277542 4820.33 14
 0 -2 4 278638 6125.53 9
 0 -4 2 282454 6279.98 3
 2 0 4 289713 6266.4 1
 -2 0 -4 292422 4845 25
 2 0 -4 281775 4909.09 15
 0 2 -4 277932 6438.73 12
 4 -2 0 283401 4939.09 15
 0 -2 -4 261866 5328.88 11
 2 0 4 278475 6204.27 9
 2 4 0 279912 4917.96 19
 -2 -4 0 283470 5681.14 4
 2 0 4 275440 4947.96 17
 2 4 0 293273 4854.55 17
 4 0 2 261714 4922.09 15
 -4 0 2 273594 4849.01 7
 0 4 -2 284437 4919.59 25
 0 2 -4 272508 4856.49 14
 4 2 0 281787 6101.47 11
 2 0 -4 264288 6078.57 3
 4 0 -2 280728 4924.86 14
 -4 -2 0 278450 6068.76 12
 0 2 4 261876 4735.77 19
 -4 0 -2 268112 4891.05 25
 -4 2 0 274128 4829 5
 -4 0 -2 284693 6407.3 2
 2 0 4 282793 4886.57 18
 -4 0 -2 277430 4901.09 5
 -2 -4 0 282202 5716.42 11
 4 0 -2 267291 4745.62 13
 0 2 -4 276085 4810.18 5
 2 -4 0 263174 6149.96 12
 4 0 2 279622 6065.75 3
 0 2 -4 278681 4878.77 20
 -2 0 -4 274992 4826.23 23
 -2 4 0 274054 4933.14 21
 0 2 -4 272583 4926.83 23
 -2 0 4 277485 6177.93 3
 0 2 4 286510 6312.74 9
 4 2 0 285773 6069.98 4
 4 0 -2 265030 6146.96 10
 0 4 -2 281420 6338.08 4
 0 2 -4 285882 4943.61 25
 0 2 -4 272468 6405.47 11
 2 4 0 282153 4775.17 24
 -2 0 4 276800 4916.66 18
 0 -2 4 281704 6410.4 11
 0 -4 2 273693 4922.59 22
 2 4 0 265100 5701.63 11
 0 2 4 282777 5321.45 4
 2 0 -4 269678 6318.01 2
 0 2 4 272033 4914.42 17
 2 -4 0 266764 6149.27 4
 -2 0 -4 276369 4822.19 24
 -2 0 -4 278018 4902.17 6
 -2 4 0 273434 4908.75 24
 4 0 -2 271380 4914.35 15
 2 -4 0 281680 4869.44 22
 0 2 4 287144 6323.69 1
 -2 0 -4 286211 4822.44 26
 -2 0 -4 282077 4850.03 5
 2 4 0 266039 4755.9 23
 4 2 0 283296 4863.01 23
 0 2 4 279223 5351.86 11
 0 -2 -4 267714 5303.76 4
 0 -2 4 280359 4895.74 7
 4 0 -2 288115 4963.77 23
 0 2 -4 277809 6392.71 4
 0 -2 -4 283450 6266.26 1
 0 -2 4 275856 6283.91 3
 -4 0 -2 284636 6423.13 10
 -2 0 -4 268584 5895.38 4
 4 2 0 276810 4943.5 14
 2 0 4 267353 5935.21 11
 4 0 2 274541 6078.23 4
 -2 -4 0 282939 5705.88 12
 0 4 -2 268395 6298.16 12
 0 -2 4 272602 4774.93 17
 2 4 0 277561 4767.25 25
 2 0 -4 280476 6216.1 4
 0 -4 2 279590 4928.35 7
 0 4 -2 275044 4900.65 5
 -2 0 -4 274573 4962.69 20
 -2 0 -4 275995 6186.5 1
 0 4 -2 271731 5974.73 10
 0 -4 -2 280791 5935.23 1
 2 4 0 281174 4902.98 21
 -2 -4 0 278988 5652.57 3
 2 0 4 267286 5859.49 3
 0 -4 2 278933 4877.37 13
 -2 4 0 278774 4763.24 6
 2 0 -4 282297 4900.3 23
 -2 4 0 291231 4930.55 26
 -4 0 -2 275166 4899.17 26
 4 2 0 282074 6078.24 12
 -2 -4 0 283148 6330.17 10
 4 0 2 274165 4825.46 13
 -2 4 0 264914 4892.99 19
 0 4 -2 284520 4922.1 6
 0 -4 2 285459 6317.01 4
 4 2 0 281302 4902.27 15
 4 0 2 280866 6112.82 12
 2 0 -4 274066 6355.76 10
 -4 0 -2 281335 6049.29 9
 -2 0 4 281605 4829.4 8
 -4 0 -2 273238 4945.24 20
 0 -4 -2 278230 5641.59 2
 2 4 0 276141 5666.45 4
 4 0 2 260675 4927.4 17
 0 -2 4 285588 6412.64 12
 2 4 0 273528 6228.39 10
 0 2 4 280483 5338.83 12
 -4 2 0 270296 4972.7 24
 2 0 4 280743 5916.02 4
 0 4 -2 289745 4921.8 26
 2 4 0 265500 6192.99 2
 0 2 -4 289026 4945.48 26
 -4 -2 0 279528 6071.73 11
 0 -2 -4 278220 4777.41 6
 4 2 0 282358 4866.94 24
 -4 2 0 277487 4978.21 26
 0 4 2 277224 4901.89 19
 2 -4 0 284624 4970.45 13
 0 -2 -4 284574 6272.08 9
 -2 4 -2 227492 4104.58 25
 -2 2 4 222886 5051.33 4
 -4 2 2 209008 4078.97 25
 -2 4 2 218046 3938.9 26
 2 -2 4 227185 4093.41 13
 2 4 -2 225032 4005.14 19
 -2 2 -4 220488 4061.34 24
 -4 2 2 217542 4089.97 20
 -4 2 2 207936 4666.54 9
 -2 2 -4 218278 4063.78 23
 2 -4 -2 220092 4097.06 13
 -2 4 -2 222806 4004.27 21
 4 2 -2 216821 3977.55 15
 2 -4 2 224868 3994.26 7
 4 2 2 227090 3994.28 19
 2 4 2 223095 4067.37 17
 -4 -2 -2 223213 4847.15 3
 2 -4 -2 218990 4976.56 12
 2 -2 -4 206619 5098.82 10
 4 2 2 212416 4765.39 3
 -2 4 2 219982 4074.35 21
 -4 2 2 218722 4041.96 16
 -2 2 -4 232360 4092.27 25
 -2 2 4 221163 5058.12 11
 2 4 2 225006 5426.97 2
 -2 -4 2 231601 4066.74 22
 -4 2 -2 215058 4095.48 24
 2 2 -4 224260 3950.34 15
 4 2 2 219538 4799.44 4
 2 -2 -4 225506 3941.45 23
 2 -2 -4 220328 4014.34 14
 -4 -2 2 207795 4067.72 26
 2 -2 -4 222798 5023.33 3
 2 -2 -4 225103 3942.85 24
 -4 2 -2 218500 4114.56 20
 4 2 -2 226630 4065.54 23
 4 -2 2 226363 4051.44 13
 -2 2 4 217074 5261.64 9
 -2 -2 4 219715 4062.62 7
 -4 2 -2 217747 4094.06 25
 -2 -2 4 214085 3895.81 22
 -4 2 -2 227632 5167.83 2
 4 -2 -2 218564 4019.6 13
 4 -2 -2 223663 4057.9 23
 2 4 -2 232821 4030.64 25
 -2 4 -2 217621 4077.74 24
 2 -4 -2 223769 4977.66 4
 2 -4 -2 203771 4918.28 4
 -2 4 -2 217636 3989.63 6
 -2 2 -4 226889 4058.7 6
 2 -2 4 220008 4030.8 22
 2 -2 -4 222447 4056.92 15
 -2 2 4 224657 5047.37 3
 2 -2 4 221839 5102.28 9
 -4 -2 -2 224701 3992.59 20
 -2 2 4 224724 5311.79 1
 -2 4 -2 223163 4073.3 26
 -2 2 4 222849 5067.83 12
 4 2 2 217964 4819.25 12
 2 -4 2 217696 4077.05 13
 4 2 -2 217854 4052.43 14
 -4 2 -2 222782 3984.22 6
 -2 2 -4 219590 4093.4 20
 -2 2 4 227546 4050.2 18
 4 2 -2 229269 4072.6 24
 4 -2 -2 219330 4058.65 15
 2 2 4 224006 4097.23 17
 -2 4 -2 223455 4043 5
 -4 2 2 218238 4706.3 1
 -2 4 2 219724 4044.59 8
 -2 2 4 206536 3947.45 26
 -2 4 -2 215595 4058.07 20
 2 -2 4 219767 3885.03 7
 2 -2 4 212088 4030.06 17
 2 -2 -4 217055 5066.59 12
 2 4 2 228393 4034.03 19
 -4 -2 2 218911 3992.76 7
 4 2 2 216208 4052.47 17
 -4 2 -2 218809 4032.12 5
 4 -2 -2 225203 3984.78 14
 -4 2 2 216792 4082.34 26
 2 -2 4 224898 5123.92 1
 2 -2 -4 223931 5132.5 11
 -2 4 2 216203 3944.99 25
 2 4 -2 229262 4024.55 24
 -4 -2 2 226135 4031.17 16
 -2 2 4 226868 3995.28 17
 2 -2 -4 223429 5069.93 4
 2 -4 -2 221523 4988.38 11
 -4 2 2 219373 4052.6 8
 2 2 -4 221709 4043.52 14
 2 -2 -4 209768 5086.96 2
 -2 2 4 217812 3947.02 16
 2 -4 2 219665 4056.6 22
 -4 2 -2 226824 4112.35 26
 -2 -4 -2 226098 5465.35 10
 2 -4 -2 224002 4956.51 3
 2 4 -2 230345 3947.05 14
 -2 -2 4 223022 3873.44 16
 -2 2 -4 225670 4022.49 5
 -4 -2 -2 225533 3991.6 16
 -2 2 -4 224945 4057.31 26
 2 -4 -2 228883 3979.53 15
 -4 -2 -2 227414 4883.98 11
 4 2 2 209879 4791.33 11
 4 -2 2 216375 4027.69 15
 -4 2 -2 222326 3954.87 16
 2 2 -4 221426 4064.31 24
 2 4 2 222933 3947.15 21
 -2 2 4 222110 4045.12 8
 2 2 -4 220762 3868.23 19
 4 2 -2 221901 4036.37 19
 2 2 -4 223140 4006.93 6
 4 -2 2 226025 4050.8 22
 2 -2 4 224161 3959.34 18
 -2 -2 -4 231541 3983.96 5
 -2 4 -2 219187 4083.21 23
 2 4 -2 230309 4071.66 21
 4 2 2 216083 3870.93 23
 2 2 -4 221245 4068.24 23
 -2 -4 -2 222581 5436.61 2
 2 4 -2 219413 4013.14 23
 -2 -4 2 224045 4061.35 7
 2 4 -2 215037 4037.54 6
 2 2 -4 222300 4071.89 25
 -4 2 -2 226123 5154.87 10
 -4 -4 0 152168 2931.79 16
 4 0 -4 148402 2930.56 24
 -4 0 4 152518 2894 8
 4 0 -4 150545 2932.28 23
 4 0 -4 147916 2919.46 15
 -4 0 -4 142976 2827.22 24
 -4 4 0 150183 2978.34 26
 0 -4 -4 145779 2808.61 14
 -4 4 0 152409 2836.24 8
 -4 0 -4 148278 2839.82 26
 0 4 -4 144664 2850.78 5
 -4 4 0 145629 2974.74 24
 4 4 0 148490 2851.32 21
 -4 4 0 147979 2970.09 25
 -4 0 -4 145942 2972.69 20
 -4 0 4 149557 2846.05 16
 4 0 4 147404 2890.93 13
 0 4 -4 151362 2955.34 25
 -4 0 4 137102 2925.47 26
 0 4 4 146559 2829.45 19
 0 -4 4 148882 2905.38 7
 0 4 -4 150433 2968.79 24
 4 -4 0 143599 2798.21 22
 0 4 4 144464 2826.89 21
 -4 4 0 146748 3016.88 20
 -4 4 0 144257 2899.56 21
 0 4 -4 144038 2938.2 23
 -4 4 0 148276 2914.79 16
 -4 4 0 151350 2833.5 5
 0 4 -4 146835 2923.33 6
 -4 0 -4 148081 2894.37 5
 0 4 -4 154128 2961.14 26
 0 4 -4 144875 2856.06 21
 4 -4 0 148511 2853.67 15
 0 -4 4 147357 2889.66 13
 -4 0 -4 151851 2927.01 6
 0 -4 4 147109 2888.5 22
 4 4 0 151820 2922.9 19
 4 0 -4 150323 2940.03 14
 0 4 4 144790 2940.75 17
 4 0 4 143494 2971.66 17
 -4 0 4 150089 2860.14 18
 -4 0 4 142896 2904.28 7
 -4 0 -4 144665 2832.78 25
 -4 -4 0 153069 2832.66 7
 4 -4 0 144596 2953.62 13
 -4 4 -2 120238 2437.54 21
 4 4 2 126357 2521.04 19
 -2 4 -4 123395 2568.81 26
 -2 4 4 127745 2560 17
 2 -4 -4 123661 2407.83 14
 -4 4 -2 121575 2613.92 25
 2 -4 4 121879 2540.42 22
 -4 -2 -4 126399 2530.18 5
 -4 -2 -4 122443 2545.88 20
 4 -4 2 118541 2416.79 15
 2 4 4 121030 2582.05 17
 -4 -4 2 126608 2529.44 22
 4 -4 2 118389 2501.96 22
 4 -4 2 122811 2577.88 13
 4 4 -2 119965 2493.93 14
 4 -4 -2 122657 2585.75 13
 2 -4 -4 123428 2514.23 15
 4 2 -4 126773 2590.69 23
 4 -2 4 125619 2581.49 13
 -4 2 -4 118264 2522.66 26
 2 -4 4 122377 2573.67 13
 -2 4 -4 119058 2574.89 23
 4 -2 4 123537 2551.27 22
 4 2 -4 125736 2456.53 19
 -4 2 -4 120220 2552.66 24
 4 4 2 120936 2507.24 17
 4 -2 -4 126341 2519.94 14
 2 4 -4 123104 2543.62 21
 -4 2 4 123983 2446.01 18
 -4 4 -2 124898 2425.57 6
 -2 4 -4 122121 2582.86 24
 4 2 -4 124915 2581.74 25
 4 -4 -2 123135 2509.12 15
 -2 4 -4 127588 2610.84 25
 2 4 -4 122720 2560.14 23
 4 2 4 121788 2597.69 17
 2 4 4 127776 2450.26 19
 -4 -4 2 124519 2518.33 7
 -4 4 2 116033 2552.87 21
 4 2 -4 120266 2445.02 15
 2 -4 4 117812 2415.5 7
 4 -2 -4 125772 2512.74 23
 -2 -4 4 126246 2570.87 7
 -4 2 -4 122814 2533.96 5
 -4 2 -4 120865 2551.9 25
 -4 4 2 116906 2536.23 25
 -4 -4 2 126958 2536.12 16
 -4 2 -4 119158 2610.04 20
 2 4 -4 122703 2541.03 6
 2 4 -4 128711 2591.51 24
 -4 4 2 123839 2529.66 8
 -4 4 2 118859 2527.7 26
 2 4 -4 126321 2456.41 14
 -4 -4 -2 128843 2534.93 16
 -2 4 -4 123627 2525.58 5
 -4 2 -4 117095 2537.72 23
 4 2 -4 124504 2566.12 14
 -4 4 -2 128269 2641.42 26
 -2 4 -4 117889 2528.82 20
 -4 4 -2 119202 2612.07 24
 -4 4 -2 123388 2521.57 5
 4 -4 -2 125680 2498.9 23
 -2 4 -4 123463 2411.66 21
 -4 -2 4 123512 2540.28 7
 -4 2 4 116715 2528.11 26
 -4 2 -4 122225 2521.32 6
 -4 -2 4 122325 2443.25 16
 4 -2 -4 122324 2570.63 15
 4 4 -2 122073 2496.27 23
 -2 -4 4 127040 2493.85 22
 -4 4 2 122512 2618.29 20
 4 4 -2 122907 2502 25
 2 4 -4 128623 2578.55 25
 -4 4 2 123863 2553.52 16
 4 4 -2 123620 2497.8 24
 4 -2 -4 124856 2513.66 24
 4 -2 4 117060 2575.34 17
 -4 2 4 120556 2529.44 8
 -2 4 -4 124241 2536.74 6
 -4 2 4 121732 2483.85 16
 4 4 -2 125567 2523.35 19
 -4 4 -2 123611 2627.53 20
 -2 4 4 119952 2548.85 8
 4 2 -4 130292 2600.03 24
 4 4 -4 74740.3 1814.9 25
 -4 -4 4 74312.9 1701.94 16
 -4 4 -4 72817.7 1844.37 25
 -4 4 -4 72796.2 1854.86 20
 4 4 -4 74213 1814.5 23
 4 4 -4 73063.8 1801 24
 -4 -4 -4 78135.3 1702.27 16
 -4 4 -4 68790.5 1817.65 23
 -4 4 -4 71771.7 1814.94 26
 -4 -4 4 71921.4 1789.91 7
 4 -4 4 74420.6 1837.81 13
 -4 4 -4 75370.2 1767.49 6
 4 -4 -4 73546.9 1820.37 13
 -4 -4 4 74911.2 1702.51 22
 4 4 -4 72690.3 1691.1 19
 -4 4 -4 66180.2 1793 24
 4 4 4 71777 1809.29 17
 4 4 -4 74787.2 1766.44 14
 4 -4 -4 71733.2 1772.14 15
 -4 4 -4 75216.2 1798.99 5
 4 -4 4 72278.4 1789.34 22
 -4 4 4 70815.2 1785.91 8
 4 4 4 74317.1 1681.9 19
 1 1 -5 13225.8 506.552 24
 1 5 -1 13958.3 482.616 25
 -1 1 5 13594.5 475.443 17
 -1 -5 -1 13648.4 1008.36 9
 -1 -5 -1 13387.6 517.051 22
 1 -1 -5 14050.9 467.806 25
 1 5 1 14124.8 524.187 21
 1 5 -1 13849.1 479.518 26
 -5 -1 1 12783 537.086 26
 -1 -1 -5 13601.6 489.535 6
 1 -5 1 13184.4 524.123 13
 -5 1 -1 13967.1 476.904 6
 1 -1 -5 13274.6 928.704 4
 -1 -5 1 12599.8 950.315 11
 1 -1 -5 12909 929.608 12
 -1 5 -1 13724.6 531.08 21
 1 -5 1 14393 548.204 7
 -1 -1 5 13240.5 515.378 7
 -1 1 5 13811.8 934.736 3
 -1 -5 1 14262.9 1002.15 12
 -5 1 -1 13364.7 497.382 5
 1 -5 -1 13255.7 485.704 22
 -1 -1 -5 13725.1 429.993 5
 -1 1 5 12661.5 917.556 11
 -5 1 1 13661.8 525.247 16
 -1 5 -1 13260.3 502.664 24
 1 -1 -5 12766.8 513.853 15
 1 -1 -5 12878.6 936.995 11
 5 1 1 12421.5 493.299 17
 -1 5 1 13370 524.517 19
 5 1 1 13401.2 490.223 23
 -1 1 5 13399.1 480.382 8
 -1 1 -5 13612 459.122 5
 -5 1 1 14350.4 1021.17 10
 1 5 1 12641.9 895.476 10
 -1 -5 1 13319.3 952.037 3
 1 1 -5 13453.4 512.269 25
 -1 -5 -1 13731.1 489.407 13
 1 5 -1 13326.3 509.022 6
 1 1 -5 13383.2 493.925 15
 -1 5 -1 12968.2 476.235 20
 5 1 -1 13280.2 534.85 14
 1 1 -5 13339.5 481.847 6
 -1 -5 1 12760 941.941 2
 1 5 -1 13601.9 988.699 10
 1 5 1 13157.4 917.015 2
 -1 5 1 13571.4 541.174 21
 5 -1 -1 13515.6 961.766 2
 5 -1 -1 13583.6 533.249 23
 1 -1 -5 13990 531.129 14
 -5 1 1 12474.9 542.044 25
 1 -1 5 13837.1 523.92 18
 1 -1 5 13620.7 469.88 7
 -5 -1 -1 14120 514.308 16
 -5 -1 -1 13129.2 507.231 26
 -5 1 -1 12479.9 532.595 24
 -1 5 -1 13128.9 482.469 6
 -1 -5 1 13942.5 537.239 22
 1 -5 1 12761.8 511.031 22
 -1 1 -5 14270.7 517.815 24
 -1 1 5 14246.5 965.284 12
 -1 -5 1 13342.7 963.658 4
 1 1 5 13493.6 536.166 18
 1 5 1 14343.5 534.484 19
 -1 -5 1 13909.8 471.835 13
 1 -1 -5 13030.2 913.226 3
 -5 1 -1 13831.2 555.126 20
 -1 -5 -1 14358.2 1041.66 1
 1 -1 -5 13205.8 428.587 6
 -5 -1 -1 12665.5 506.586 25
 1 1 -5 14087.3 529.491 14
 -5 1 1 12969.7 526.306 20
 -5 -1 -1 13441.2 509.127 5
 -5 -1 1 13379.8 465.556 5
 5 -1 -1 14378.2 524.07 14
 1 5 -1 11899.5 933.766 12
 -5 1 1 13225.3 440.938 5
 5 1 -1 13350 525.599 23
 -1 5 -1 13609.7 517.702 5
 -5 -1 1 14516.2 535.765 16
 -5 1 1 11979.4 933.677 2
 -5 1 -1 13534.5 1022.11 2
 1 5 1 14262.1 532.546 17
 5 1 -1 12944.1 518.255 15
 5 1 1 13187.4 534.626 15
 -1 -5 1 14232.3 552.29 7
 -1 1 -5 14148.7 510.705 26
 5 -1 -1 12854.3 524.549 15
 -5 -1 -1 13983.4 507.076 20
 1 -1 5 14141.4 506.838 17
 -1 1 -5 13956.9 516.373 6
 -1 1 -5 13800 506.224 23
 1 5 -1 12982.5 963.372 4
 -1 -5 -1 12820.8 915.791 2
 -1 5 -1 13331.4 504.083 19
 1 5 -1 12025.3 925.947 2
 1 -5 -1 14140.2 544.809 13
 -1 1 -5 13875.8 509.454 25
 -5 1 -1 11939.5 961.528 10
 5 -1 -1 12584.2 934.134 10
 5 -1 -1 12785.5 447.147 13
 1 5 -1 13723.2 530.307 21
 -1 5 -1 14396.8 514.246 26
 -1 -5 1 13339.5 976.532 10
 5 -1 1 13597.4 547.145 15
 -1 1 5 14591.9 965.308 4
 -1 -1 5 13939.2 541.749 18
 -1 1 -5 13979.7 523.095 14
 -1 1 5 13550.7 541.728 18
 1 -1 -5 14024.5 466.376 24
 -1 5 -1 14597.4 526.354 25
 -1 5 -1 12955.1 500.847 23
 -1 1 -5 13313.3 536.87 20
 1 5 -1 14125.7 489.381 24
 -5 1 1 13292.8 550.225 26
 5 1 1 13868.9 515.141 19
 1 5 -1 12719.7 501.604 19
 -5 1 -1 13656.4 504.402 16
 5 -1 1 13284 468.585 13
 -5 1 -1 13687.9 558.696 25
 1 -1 5 13917 484.324 22
 1 -1 -5 13758.1 465.844 23
 1 1 5 14237.7 531.475 17
 1 1 -5 13269.9 509.083 23
 -5 1 -1 13444.2 547.849 26
 -1 -5 -1 12527.4 912.023 10
 1 5 -1 13141.6 471.672 23
 1 -3 5 12853.7 525.832 18
 3 -1 -5 12500.1 506.633 23
 1 5 -3 13105.2 556.395 6
 -3 5 -1 12288 549.885 26
 3 -5 1 12767.2 567.371 13
 1 5 -3 11754.4 521.745 23
 1 5 -3 12712.9 536.787 25
 1 5 -3 13288.9 552.989 24
 -1 3 -5 12709 550.004 25
 -5 -3 1 12668.1 476.234 7
 -3 -1 5 12529.5 550.877 7
 -5 1 3 11927.9 563.147 26
 -1 3 -5 12364.2 548.379 23
 -3 1 -5 13186.1 516.964 26
 -1 5 3 12308.4 535.641 21
 3 -1 5 12222.8 554.309 17
 -5 1 3 12832.5 535.121 16
 1 5 3 12844.8 560.526 17
 3 -5 1 12172.9 511.902 22
 -1 5 -3 12133.3 545.001 24
 1 3 -5 13014.5 556.534 25
 5 1 -3 12209.6 543.308 14
 -3 1 5 13279.2 544.363 18
 -1 -3 -5 12782.6 479.527 6
 1 -3 -5 12977.3 545.208 15
 -3 -5 1 13290 550.824 7
 1 -5 3 12456.5 533.556 13
 -3 1 -5 12816.6 517.984 5
 -1 -3 5 12776.6 541.669 7
 -3 5 -1 12746.3 521.762 5
 3 5 -1 13493.6 492.328 25
 -3 -1 5 12396.9 467.061 8
 1 5 3 12553.8 523.461 19
 -1 5 3 12741.3 561.415 17
 -5 3 1 13087.1 549.829 16
 -3 5 -1 12966.8 562.885 25
 -3 1 5 12851.5 540.418 26
 -3 1 -5 11933.3 501.548 24
 3 5 -1 12804 480.834 24
 3 -1 -5 12597.2 540.823 14
 -5 1 -3 12275.5 528.458 5
 -1 3 -5 12708.5 503.609 5
 5 3 1 13115.2 508.468 17
 3 5 1 13413 525.161 17
 -3 -5 1 13940.5 571.996 22
 -5 1 -3 12195.4 540.885 24
 -5 -3 1 12492 533.616 16
 -3 1 -5 12540.6 537.397 6
 3 5 -1 12933.7 483.484 14
 5 1 -3 12969.7 539.712 15
 5 3 -1 12133.9 492.259 15
 -3 1 -5 12281.9 568.53 20
 5 -3 -1 12633.1 533.256 13
 -5 3 -1 12844.5 587.621 24
 -3 -5 -1 13564.2 536.859 7
 1 -5 3 12471.2 522.172 7
 5 3 1 12171 521.479 19
 -5 -1 3 12844.1 517.418 7
 5 -3 1 12479.3 532.375 15
 -1 -5 3 12244.8 533.413 22
 -5 3 1 13200.2 583.177 26
 5 -1 -3 12861.2 558.327 24
 -5 3 -1 13056.1 519.193 5
 3 1 -5 12261.7 536.521 23
 -5 3 1 12344 575.068 25
 -1 5 -3 12911.9 559.702 23
 -5 3 1 13232.7 536.461 8
 3 -1 5 12699.1 532.821 22
 1 5 -3 12948.6 538.984 26
 5 1 3 12990.7 479.494 19
 3 1 -5 13105.7 552.866 25
 1 -3 -5 13048.2 524.645 14
 -5 3 -1 11763.2 561.372 25
 -5 3 -1 12429.5 581.625 20
 3 1 -5 13262 532.664 15
 1 -5 -3 11341.3 528.689 13
 3 5 -1 12872.5 484.068 23
 1 3 -5 12511.2 508.238 14
 5 3 -1 13017.9 516.664 23
 -3 5 -1 12247.2 551.026 24
 -3 1 -5 12713.7 517.445 23
 3 1 -5 12455.7 538.623 24
 1 -3 5 12063.6 506.954 22
 -1 5 -3 13399 546.688 6
 -1 -5 3 12793.6 486.506 13
 1 3 -5 12412.1 460.354 5
 1 3 -5 12633.8 556.405 24
 3 -5 -1 12880.4 474.18 22
 -3 5 1 12232.9 507.505 8
 5 -3 1 12337.7 503.974 22
 -5 1 -3 12761.5 528.631 6
 1 5 -3 13266.1 551.219 21
 -3 5 -1 12375.3 565.981 20
 5 3 -1 13316.2 526.04 24
 1 5 3 12749.4 503.771 21
 -1 5 -3 12851.7 538.047 5
 -3 5 1 12419.7 524.393 25
 -5 -3 1 12179.3 527.431 26
 5 -1 -3 12396.8 475.86 13
 -5 -1 3 11560.1 551.158 26
 -5 -1 -3 12585.1 545.727 20
 1 -3 5 12687.1 554.561 13
 -3 5 1 12511.2 556.228 21
 3 -1 5 12454.6 486.979 18
 1 -5 3 13125.8 553.884 22
 -3 5 -1 12421.7 534.845 21
 3 5 1 12192.9 530.106 19
 3 -1 -5 13150.5 557.077 15
 3 1 -5 13041.4 559.529 14
 5 1 -3 13558.8 573.769 23
 5 -3 1 12402.4 530.782 13
 3 -5 1 13675.3 536.35 7
 -1 5 -3 12091.5 513.788 21
 -3 1 5 12972.3 470.235 16
 -1 5 -3 12914.8 550.703 26
 -1 5 -3 13730.2 576.928 25
 1 3 -5 13164 540.159 6
 3 5 -1 12935 540.606 21
 -5 1 -3 12002.2 560.447 20
 -5 3 1 11793.8 564.184 20
 -3 5 1 13037.6 484.279 5
 1 -3 5 12948.2 509.066 7
 -3 5 1 12727.2 568.984 20
 -3 -1 -5 13261.2 545.939 6
 -1 3 -5 13286.7 546.443 20
 5 -1 -3 12160.1 524.239 14
 -5 3 -1 12650.9 580.061 26
 -1 -5 3 12520.5 545.006 7
 -5 3 -1 13598 537.213 16
 5 -1 -3 12600.7 552.786 23
 5 -1 3 13365.7 526.726 13
 -5 -3 -1 13274.9 540.995 16
 3 5 1 12979.2 510.034 21
 -5 1 -3 12867 550.784 26
 -3 -1 -5 12666.9 504.63 5
 1 -5 -3 13105.2 489.449 15
 -3 1 5 13207 523.558 8
 1 3 -5 12417.9 545.504 26
 -1 5 3 12911.6 539.276 19
 -1 5 -3 12404.4 463.169 19
 5 -3 -1 12898.2 545.622 15
 -3 1 -5 13298 527.796 25
 3 -1 -5 12824.1 514.782 24
 1 5 -3 13028.1 494.066 19
 3 -1 5 12985.2 568.502 13
 -5 -1 -3 12770.4 475.969 16
 3 5 -1 12694.3 534.948 19
 1 3 -5 12086.3 542.25 23
 5 1 3 13023.5 569.772 17
 -1 3 -5 12652.4 542.17 6
 5 -3 -1 12440 538.251 23
 5 3 -1 11393.2 523.266 14
 -1 3 5 12774.9 535.65 17
 1 3 5 12245.4 546.542 17
 -1 -3 5 13159.4 496.74 22
 3 -5 -1 12290.3 560.86 13
 -3 -1 5 12051.2 535.734 18
 -1 3 -5 13541 564.554 26
 -3 -1 -5 12324.2 561.02 20
 -5 -1 3 13631.6 544.792 16
 -5 1 -3 12087.4 536.847 25
 5 1 3 13040 472.007 23
 5 -1 3 12077.1 558.803 17
 1 -3 5 12740.7 493.655 17
 5 1 -3 13374.1 573.849 24
 -1 3 -5 13002 561.116 24
 -1 3 -5 13194.5 495.752 14
 3 1 5 12641.7 569.292 17
 -3 -5 1 14205.4 565.621 16
 -3 5 1 11986.6 518.082 24
 5 3 -1 12402.9 533.52 19
 5 -1 -3 12059.7 544.379 15
 -3 5 1 12464.1 523.53 26
 -1 5 -3 12401.9 491.178 20
 -5 -1 -3 12900.6 540.82 5
 -5 -3 3 10839.4 506.455 7
 -5 -3 3 11158 515.843 16
 -5 -3 3 11486.7 486.301 22
 3 3 -5 11355.4 558.023 23
 5 3 -3 10810.8 531.177 14
 -3 5 3 11261.8 536.449 8
 -3 -3 -5 11822.2 533.508 6
 5 -3 -3 11028.8 484.688 14
 -3 5 -3 10686.3 549.769 25
 -5 3 -3 11268.6 570.915 24
 5 3 -3 12042 559.607 23
 -3 3 -5 10700.6 534.668 26
 -3 -3 -5 10449.4 526.896 20
 3 -5 3 11451.9 540.79 22
 3 5 -3 11425.5 528.694 23
 3 -3 5 10654.5 550.565 13
 3 3 -5 11659.1 561.358 25
 -3 -5 3 11536.6 552.974 7
 -3 -5 3 11743.3 538.007 22
 3 -3 5 11623.1 542.188 22
 3 3 -5 10820.3 545.581 24
 -5 3 3 11712.7 543.836 16
 -5 3 -3 11187.7 533.091 5
 5 3 3 10729.6 534.708 17
 5 3 -3 11413 544.827 24
 3 3 -5 11568.8 535.467 14
 -3 3 -5 11653.6 562.877 25
 -3 3 -5 11280.9 551.315 24
 -5 3 -3 11032.1 563.77 25
 -3 5 -3 11392.1 554.334 26
 -5 3 -3 11502.3 574.812 26
 -5 3 -3 10240.8 556.06 20
 -3 5 -3 11326.6 535.73 5
 3 5 3 11874.6 525.953 19
 -3 -3 5 10778.3 537.843 7
 3 5 3 11586.4 550.406 17
 5 -3 -3 10605.3 529.629 15
 -5 3 3 10610.9 543.544 25
 3 5 -3 11624.1 510.511 19
 -3 5 3 11083.4 552.749 21
 -3 3 -5 11506.5 543.24 6
 3 5 -3 10884.2 515.592 24
 5 -3 -3 11478.2 531.833 23
 -3 3 -5 11628.1 532.924 5
 -5 3 3 11407.3 552.003 26
 5 -3 3 11711.3 544.746 22
 -3 3 5 11922.4 508.046 17
 -3 -3 -5 12179.1 512.378 5
 3 5 -3 12038.9 539.756 25
 5 -3 3 11575.3 548.407 13
 -3 5 -3 11435.6 497.908 21
 -5 3 -3 10691.5 492.544 6
 3 5 -3 10869.2 536.912 21
 -3 3 -5 12150.4 585.342 20
 -3 3 -5 10776.9 543.998 23
 -3 5 -3 10767.2 542.448 20
 -3 5 -3 11346.2 564.181 23
 -5 -3 -3 11433.8 537.077 5
 3 3 5 10723.2 548.228 17
 5 3 -3 10480.3 501.27 19
 3 -5 3 11138.3 474.723 7
 -3 -5 3 11449.7 513.723 16
 5 -3 -3 11209.8 530.095 13
 -5 -3 -3 11868.4 503.939 16
 5 3 3 11483 498.801 19
 -5 3 3 11170.3 536.823 8
 3 -3 -5 11711.7 518.492 14
 -3 -5 -3 11461.2 498.478 7
 3 -5 3 11516 562.51 13
 -3 5 -3 11187.5 505.711 6
 -3 3 5 11836 550.956 8
 3 -3 5 10725 534.491 17
 3 -3 -5 11457.6 550.492 15
 3 3 -5 11437.5 514.872 6
 3 -5 -3 11370.7 567.787 13
 3 -5 -3 11663.8 508.246 15
 -3 5 -3 10555.3 545.631 24
 5 1 -5 9979.16 541.545 14
 -5 1 5 9985.16 491.801 16
 -5 1 5 9178.57 528.562 26
 -5 5 -1 10030.9 568.584 25
 1 5 -5 10057.9 544.337 23
 -5 -1 5 9815.81 479.317 16
 5 -1 -5 9209.68 512.206 14
 -1 5 -5 9354.77 490.872 5
 -5 1 -5 9289.01 505.724 5
 -5 5 1 10200.4 504.653 8
 5 -1 -5 9189.56 505.089 24
 -5 1 5 9848.14 515.462 8
 -5 5 -1 9610.32 498.751 21
 5 1 -5 9203.73 495.804 15
 -1 5 5 9720.76 530.791 17
 -5 -5 1 9681.97 520.618 16
 -5 1 -5 9466.8 498.929 24
 1 5 -5 10007.2 541.789 25
 -1 5 -5 9205.01 524.303 26
 1 5 -5 10053.1 540.377 26
 -5 5 1 8584.04 503.229 21
 1 5 -5 9386.64 497.725 21
 5 1 -5 9628.03 532.741 23
 5 -5 -1 9813.11 542.023 13
 -5 1 -5 8483.12 472.458 25
 5 -5 1 9073.3 468.09 22
 5 1 5 9750.75 552.795 17
 -5 -1 -5 9133.55 495.248 5
 1 -5 5 9977.83 517.723 22
 -5 5 -1 9360.02 562.205 20
 5 1 -5 10021.7 539.238 24
 5 -1 5 9466.67 513.434 13
 5 -5 1 8927.37 518.35 13
 1 -5 5 8790.26 498.066 13
 -1 -5 5 9386.73 516.375 7
 -1 5 -5 9659.64 545.271 23
 -5 1 -5 9555.16 553.225 20
 -1 5 -5 9555.11 474.98 21
 -1 5 -5 8819.05 522.777 24
 5 5 -1 9244.15 492.077 21
 1 5 -5 10182.8 551.915 24
 -5 -1 5 9297.67 486.944 18
 5 -5 -1 9659.54 488.739 15
 -5 5 1 8758.46 540.812 20
 5 -1 5 8262.05 519.86 17
 -5 5 1 9058.24 528.168 25
 -5 1 -5 9545.42 498.129 26
 -5 -5 -1 9852.06 524.722 16
 -5 -1 5 10225.3 535.459 7
 -5 5 -1 9148.77 542.619 26
 5 -1 -5 9249.09 519.626 15
 1 5 5 9264.26 459.986 19
 -5 -1 -5 9701.83 523.53 6
 -5 5 -1 9297.24 479.928 5
 -1 -5 5 9312.08 492.706 22
 5 5 1 10040.4 525.76 19
 5 5 -1 9723.16 518.534 19
 -5 1 -5 9948.58 525.596 6
 -5 -5 1 9214.06 473.229 7
 1 -5 -5 9225.36 481.84 15
 1 -5 5 9659.07 498.502 7
 -5 -1 5 10076.4 497.961 8
 5 1 -5 10007.1 481.906 19
 -1 5 -5 9090.42 509.536 6
 5 -1 -5 9120.95 499.798 23
 1 5 5 9048.31 527.401 17
 -5 -1 -5 9700.94 542.452 20
 -1 5 -5 10336.7 567.753 25
 -5 5 -1 9972.76 568.946 24
 -5 5 1 8455.03 505.685 26
 1 5 -5 9532.96 521.847 6
 -5 3 5 7803.36 466.06 16
 5 5 3 8144.48 490.064 17
 -5 -5 -3 8194.75 476.576 16
 3 -5 -5 7185.36 457.435 15
 5 5 -3 7620.32 464.215 24
 -5 -3 5 8224.03 498.537 7
 5 5 -3 8175.84 479.727 19
 -5 3 5 8596.63 512.914 8
 5 3 -5 8129.51 503.665 14
 5 5 -3 8663.15 494.007 25
 -5 3 -5 7330.6 471.41 5
 -5 3 -5 7505.71 496.569 26
 -5 5 3 7994.68 491.273 8
 3 5 -5 7706.91 478.713 6
 -5 5 -3 7812.84 524.852 25
 -3 5 -5 8123.55 488.894 5
 -3 5 5 7914.75 496.61 8
 5 -3 5 7346.92 499.098 17
 5 3 -5 8028.58 512.081 23
 3 5 -5 8351.38 512.598 25
 5 -3 -5 7516.49 470.046 13
 -5 3 -5 7163.53 487.673 24
 -5 3 -5 7596.88 498.871 25
 -5 -3 -5 7560.27 478.89 20
 -5 -3 -5 8469.95 488.475 5
 3 -5 -5 8489.28 533.271 13
 3 -5 5 7325.81 492.004 13
 -3 5 -5 8352.62 528.776 23
 3 5 -5 8321.88 509.783 26
 3 5 -5 7973.76 494.595 21
 5 -3 -5 7809.59 459.818 23
 5 -5 -3 8263.39 470.759 23
 5 5 -3 7814.64 472.329 23
 -3 5 -5 7748.08 511.392 25
 -3 -5 5 8638.8 475.361 22
 5 -5 -3 7330.77 464.075 15
 5 -5 3 7856.96 481.735 22
 -5 -5 3 8003.5 482.852 7
 -5 5 -3 7952.87 484.384 5
 5 -3 -5 8112.69 507.187 15
 5 5 -3 7608.94 461.038 14
 -5 3 -5 7677.31 524.313 20
 -3 5 -5 8539.12 532.741 24
 -3 -5 5 7657.66 494.326 7
 5 3 5 7796.62 511.61 17
 -5 5 3 7230.23 459.833 26
 -5 -3 -5 8005.41 494.407 6
 3 5 5 7413.13 498.089 17
 -5 5 3 6589.37 445.331 25
 5 5 -3 7706.58 487.221 21
 -5 5 -3 7592.55 520.849 20
 3 5 -5 8007.02 504.475 23
 -5 5 -3 8212.97 536.132 26
 -5 5 -3 8154.21 535.618 24
 5 -3 5 8003.3 507.375 13
 -5 -5 3 8645.8 489.132 22
 5 -3 5 8185.34 505.277 22
 5 -5 3 7720.63 500.552 13
 -3 5 -5 8117.79 511.207 26
 5 -3 -5 7695.31 455.17 14
 3 -5 5 8002.59 492.049 22
 3 5 -5 7776.1 502.165 24
 5 -5 -3 7978.25 510.433 13
 -3 5 -5 7090.77 474.807 20
 5 5 3 8313.56 477.461 19
 -3 5 -5 7895.53 487.764 6
 -5 -5 3 7519.87 464.655 16
 5 3 -5 8361.35 520.409 25
 -5 3 -5 7397.21 469.885 6
 -5 3 5 7549.88 474.98 26
 5 -3 -5 7226.81 446.468 24
 5 3 -5 7667.75 498.105 24
 5 5 -5 5023.39 426.756 24
 -5 5 -5 4957.09 417.103 5
 5 -5 5 5171.62 429.892 22
 -5 5 -5 5040.28 450.602 20
 5 5 -5 4923.05 398.897 14
 -5 5 -5 5193.56 455.351 24
 5 -5 -5 4749.99 418.933 13
 -5 -5 5 4725.01 412.973 7
 5 5 -5 5293.07 435.848 25
 5 5 -5 5314.72 439.882 21
 5 -5 5 5011.02 437.435 13
 5 5 -5 4815.31 419.998 23
 5 -5 -5 4440.01 392.381 15
 -5 5 -5 5085.89 406.174 6
 -5 -5 -5 4877.27 395.838 5
 -5 5 -5 4809.94 436.782 25
 5 -5 5 5098.03 442.582 17
 -5 5 -5 4898.03 442.252 26
 5 5 5 5390.86 446.991 17
 -5 5 5 5235.91 434.709 8
 0 0 -6 128152 2443.25 26
 6 0 0 111222 2413.51 17
 0 0 -6 122628 2532.75 14
 6 0 0 117027 2516.96 14
 0 0 -6 124765 2441.54 6
 0 -6 0 122770 2516.24 22
 0 -6 0 128011 2513 13
 0 6 0 121309 2516.91 19
 6 0 0 119849 2559.67 15
 -6 0 0 121333 2433.39 5
 -6 0 0 116112 2558.08 25
 6 0 0 120982 2521.6 23
 -6 0 0 121386 2518.37 16
 -6 0 0 113906 2536.33 26
 0 6 0 123220 2545.04 21
 0 0 6 122679 2416.05 17
 0 0 6 116776 2461.73 7
 -6 0 0 122812 2518.61 20
 0 -6 0 130696 2608.05 7
 0 0 -6 127911 2454.25 24
 0 0 6 125666 2570.74 18
 0 0 -6 127793 2446.28 25
 0 0 -6 120020 2421.13 23
 0 2 6 104923 2211.78 17
 0 2 -6 107886 2251.25 25
 2 6 0 107371 2167.95 17
 2 -6 0 102411 2179.99 22
 -6 0 2 95742.3 2284.42 26
 0 6 -2 104175 2187.33 26
 0 6 -2 102078 2201.57 23
 -6 0 -2 104484 2212.04 5
 2 -6 0 104561 2267.21 7
 0 6 -2 100202 2227.22 21
 6 0 -2 101373 2234.47 14
 -2 -6 0 104575 2263.29 22
 0 2 -6 108492 2266.94 24
 -6 0 -2 100060 2227.45 26
 2 -6 0 102997 2272.47 13
 2 0 -6 105816 2195.69 23
 -6 2 0 102407 2224.54 16
 2 0 -6 105550 2188.76 24
 0 6 -2 102918 2172.43 19
 6 2 0 97252.5 2207.01 15
 -2 6 0 103248 2179.87 5
 6 -2 0 99950.4 2237.25 23
 6 0 2 99754.1 2260.02 15
 0 6 2 100780 2223.13 19
 2 0 -6 107977 2202.78 25
 2 0 -6 103857 2254.72 14
 0 6 -2 100980 2189.89 24
 0 -2 6 98653.1 2091.03 22
 0 -6 2 106716 2276.5 7
 -2 0 6 106739 2287.41 18
 0 2 6 97936.4 2256.51 18
 -6 -2 0 97755.5 2212.81 26
 -6 0 -2 96578.2 2225.85 25
 0 -6 -2 103412 2155.73 22
 0 2 -6 101660 2227.6 23
 6 0 -2 97190.9 2230.19 15
 -6 -2 0 101045 2214.51 16
 0 -2 -6 103262 2237 14
 -2 6 0 101814 2261.17 21
 0 2 -6 104606 2215.68 6
 -2 -6 0 109664 2287.19 7
 6 0 2 107360 2179.72 19
 -6 0 -2 103950 2167.72 16
 -2 0 -6 103009 2098.71 5
 6 0 -2 105060 2280.02 23
 0 6 2 107827 2290.59 17
 -6 2 0 97973.6 2293.45 26
 -6 0 2 103387 2244.12 16
 0 -6 -2 103010 2221.87 13
 -2 0 -6 103111 2300.06 20
 0 -6 2 104785 2183.79 13
 6 2 0 104543 2196.81 24
 6 0 2 100414 2174.7 23
 2 6 0 102063 2218.68 21
 6 -2 0 99001 2116.79 13
 0 6 2 103124 2237.32 21
 -2 6 0 101868 2178.37 25
 -2 6 0 95922.9 2178.33 20
 6 2 0 105843 2193.97 23
 0 2 -6 104364 2205.79 14
 -2 6 0 100024 2171.37 24
 -6 2 0 100135 2299.44 20
 -6 0 -2 104057 2268.55 20
 -2 0 -6 103303 2201.36 6
 0 2 -6 106869 2242.41 26
 -2 6 0 97104 2202.33 19
 -6 0 -2 105098 2192.08 6
 2 6 0 104174 2239.4 19
 -6 2 0 101912 2120.25 5
 -6 2 0 96104.4 2296.03 25
 6 2 0 104876 2239.21 19
 -6 0 2 100810 2152.41 20
 0 -2 6 102891 2249.22 18
 2 0 6 104536 2240.32 17
 -2 0 6 97613.4 2235.76 7
 2 0 -6 104230 2226.84 15
 0 2 -6 102446 2215.8 20
 2 0 6 101874 2217.65 18
 6 -2 0 100748 2261.68 15
 6 0 2 96228.3 2219.26 17
 -2 6 0 105767 2192.82 26
 -6 -2 0 105370 2185.97 5
 0 -6 2 103112 2252.73 22
 0 6 -2 103597 2211.49 6
 0 6 -2 109369 2233.17 25
 0 -2 6 102836 2185.93 7
 6 2 -2 79353.2 1972.09 14
 -2 2 -6 88035.9 1988.39 23
 -6 2 -2 86899 1905.5 16
 -2 6 -2 84879.3 1969.07 26
 2 6 2 85564.4 1911.73 21
 2 6 2 89425.8 1989.28 19
 -6 2 2 83060.8 1970.55 16
 -6 2 -2 89335 1878.62 6
 -2 2 -6 87127.4 1976.28 24
 -2 6 2 86755.9 2036.07 21
 2 6 -2 84316.6 1899.47 23
 2 -6 -2 85825.6 2028.88 13
 6 2 -2 86590.5 1985.31 19
 -2 2 -6 83602.7 1915.91 14
 2 -2 6 84859.4 1929.35 22
 -6 2 2 80707.7 2039.67 25
 2 2 -6 87826 2000.27 24
 -6 -2 -2 85630.8 1917.54 16
 2 -6 2 85863.4 1982.16 22
 -2 2 6 87060.7 1941.28 8
 -6 2 -2 85298.6 2062.66 20
 2 6 -2 88848.8 1933.27 24
 -6 -2 2 81504.2 2008.41 26
 2 -2 6 87502.8 1956.11 17
 -2 2 -6 86333.6 2035.64 20
 2 2 -6 89841.8 1902.37 15
 6 2 -2 87418.6 2001.8 24
 2 2 -6 89547.5 2016.22 25
 2 -2 6 85666.5 2036.96 13
 -2 6 -2 86773.9 2000.96 25
 2 -6 2 88723.2 1973.69 7
 -2 -2 -6 90019 1934.01 6
 2 -6 2 84832 1998.84 13
 -2 -6 2 88100.1 2029.24 7
 2 2 -6 82991.9 1978.79 23
 2 2 6 85466 2001.5 17
 2 -2 -6 85278.8 1967.34 14
 6 -2 -2 85360.5 1997.15 23
 -6 2 -2 84106.2 2043.44 26
 2 2 -6 85855.5 1979.09 14
 -2 -6 2 88729.7 2015.47 22
 2 6 -2 89039.9 1918.22 26
 -2 -2 6 85135.4 1987.79 7
 -2 6 -2 91711.9 1937.15 6
 -2 2 -6 94006.5 2021.09 25
 -2 6 -2 86515.8 1970.98 5
 -2 6 -2 84069.8 1931.37 20
 6 2 -2 89677 2004 23
 6 -2 2 80015 1966.35 15
 -6 2 2 81970.1 2030 26
 6 -2 -2 85199.1 1927.58 14
 -2 2 -6 89268.2 1902.18 5
 -2 6 2 83446.8 1980.38 19
 -2 6 -2 85062.5 1959.17 21
 -6 -2 2 85973.5 1974.39 16
 2 6 -2 90240.8 2018.69 21
 6 -2 2 81195 1889.41 13
 -6 2 -2 79934.2 2020.56 25
 -2 -6 -2 90157.9 2002.36 7
 -2 6 -2 84250.2 1983.08 23
 -2 -6 -2 89157.2 1995.08 22
 -2 6 -2 84417.8 1898.99 19
 -2 6 -2 81041.4 1958.22 24
 -2 2 -6 85620.4 1981.41 6
 2 6 2 91077.7 2013.77 17
 -6 2 2 84111.7 2007.97 20
 6 2 2 87478.3 1933.04 19
 2 6 -2 85242.1 1939.9 19
 2 6 -2 89005.6 1922.07 25
 -2 -2 6 87315.1 2026.48 18
 2 -2 6 84463.1 1927.59 18
 6 2 -2 81744.2 1931.72 15
 2 -2 -6 86605.6 2002.15 15
 -2 2 6 85705.3 2004.35 18
 2 2 -6 90635.8 1928.33 6
 6 -2 -2 80884.9 1985.11 15
 6 2 2 84764.8 1957.04 17
 -6 -2 -2 86358.1 1969.61 5
 -2 2 -6 90595.1 1979.53 26
 -6 2 -2 85221.7 1948.59 5
 -6 2 -2 82598.1 2036.29 24
 0 -4 6 61582 1538.47 22
 -4 6 0 58303.3 1604.74 25
 0 6 -4 65015.6 1649.93 26
 -4 6 0 61866.3 1635.85 26
 -6 0 -4 60185.3 1594.72 5
 -6 4 0 59586.8 1694.03 25
 6 0 4 59959.6 1665.43 17
 -4 -6 0 66187.2 1596.7 7
 0 6 -4 59987.5 1572.22 5
 6 -4 0 62460.1 1600.75 15
 0 -6 4 60225.1 1592.77 7
 4 0 -6 60867.3 1626.08 14
 -4 6 0 58511.3 1607.36 21
 0 4 -6 60618.9 1492.93 5
 -4 0 6 61801.7 1522.34 8
 -4 6 0 58865.4 1617.99 24
 4 0 -6 62822 1601.69 24
 6 0 -4 58823.8 1610.78 15
 -6 4 0 63317.7 1548.01 8
 -6 0 4 56296.2 1643.41 26
 0 -4 -6 61315.1 1585.67 15
 4 0 -6 64158.5 1632.97 15
 0 -6 4 62927.9 1573.03 13
 0 4 -6 60911.4 1645.17 24
 -4 -6 0 66293.3 1663.47 16
 6 0 -4 61702.9 1647.57 24
 -4 0 6 58422.7 1617.68 7
 0 -4 -6 62506.2 1563.32 14
 0 6 4 62165.7 1569.56 21
 4 0 -6 62737.7 1606.46 23
 -6 4 0 60451.7 1604.59 16
 4 -6 0 63835.8 1521.04 22
 0 4 6 65213.7 1652.41 17
 -6 4 0 61640.3 1496.22 5
 0 4 -6 63670 1518 21
 -4 6 0 63289 1537.32 5
 0 -4 6 62792 1596.44 7
 4 0 -6 60260.8 1591.27 25
 6 0 -4 62900.8 1652.5 23
 0 4 -6 63223.3 1650.43 25
 0 -6 -4 61345.2 1621.65 13
 -4 -6 0 60887.1 1637.67 22
 -6 4 0 61767.2 1714.22 20
 4 -6 0 60212.7 1650.12 13
 -6 -4 0 62053.3 1612.31 16
 6 -4 0 57554.1 1566.1 13
 0 4 -6 58748.3 1620.12 23
 -4 6 0 62059 1679.67 20
 0 6 4 63243.1 1662.18 17
 -6 0 -4 62345.3 1668.08 20
 -6 4 0 60546 1686.86 26
 0 -4 6 62463.6 1615.35 13
 -4 0 -6 63163.3 1706.72 20
 -6 0 -4 62675.8 1611.53 6
 0 6 -4 63118 1631.72 6
 4 6 0 61943.5 1567.79 21
 0 6 4 61341.5 1573.65 19
 0 6 -4 62658.8 1648.2 24
 0 -6 4 61514.6 1617.42 22
 0 6 -4 61329.1 1624.66 25
 4 6 0 60590.9 1608.56 19
 6 0 -4 60775.7 1623.7 14
 0 4 -6 64501.2 1657.74 26
 4 0 6 63700.4 1690.44 17
 6 4 0 61264.2 1606.32 19
 -4 0 -6 61530.2 1615.28 6
 -6 0 4 63890.9 1601.87 16
 -4 0 6 63846.1 1620.36 18
 0 4 -6 61777.7 1615.54 6
 0 6 -4 60760.5 1579.51 21
 -4 0 -6 63146.1 1570.07 5
 0 6 -4 59644.1 1629.91 23
 4 2 -6 54278.5 1509.65 24
 -6 -2 4 49258.2 1507.46 26
 -6 -2 4 53357.3 1434.17 16
 -4 2 6 49112.5 1410.02 26
 -2 -6 4 53229.4 1464.74 22
 -6 4 2 49335.5 1505.13 25
 -6 2 -4 50872.1 1481.22 25
 -6 2 -4 53434.9 1560.69 20
 -2 4 -6 54292.9 1534.65 25
 6 -2 -4 52770.8 1474.58 23
 2 4 -6 53801.2 1461.33 6
 2 6 -4 52771.2 1479.88 6
 2 4 -6 53572.5 1521.52 24
 2 4 -6 54902.3 1519.23 26
 -6 -4 2 54676 1476.59 16
 -6 4 2 52814.3 1456.68 8
 -6 2 -4 50789.4 1486.64 24
 -6 4 2 49679.7 1458.65 16
 -4 -6 -2 55108.4 1488.01 16
 4 -6 -2 53196.5 1530.49 13
 -4 6 -2 53087.6 1528.5 26
 4 -2 6 50849.7 1501.97 17
 2 4 -6 53932.9 1448.58 21
 2 4 -6 53349.9 1506.76 25
 -2 6 -4 51119.5 1449.16 5
 2 -4 -6 52538.7 1467.07 15
 2 6 -4 50976.4 1454.32 23
 -6 4 -2 49472 1528.54 25
 6 2 -4 53672.5 1435.02 15
 6 2 -4 52706.6 1502.13 24
 -6 -2 4 54453 1440.62 7
 2 -4 -6 53251.3 1403.25 14
 -2 4 -6 50193.2 1488.56 23
 -6 4 -2 49627.6 1535.38 24
 -6 2 -4 52809.2 1502.49 26
 4 -2 -6 53480.8 1506.65 15
 6 4 -2 49829.4 1440.84 14
 -2 -6 4 54614.4 1514.26 7
 6 4 -2 52292.2 1422.41 23
 2 -6 -4 51804.8 1513.2 13
 -6 4 -2 54583.2 1451.7 5
 6 4 -2 52065.3 1416.96 24
 -4 2 -6 51971.5 1431.36 5
 -6 2 4 49038 1502.53 26
 -4 6 -2 52033.9 1525.04 24
 -4 6 2 51379.2 1510.51 21
 -4 -6 2 56495.3 1498.98 16
 2 6 -4 54388.2 1478.25 26
 -6 4 -2 51714.4 1569.12 20
 -2 6 4 51915.6 1481.78 21
 2 4 -6 51715.8 1496.27 23
 6 -2 4 52915.3 1485.63 22
 -6 2 -4 52613.1 1467.1 5
 -4 -2 6 50372.9 1465.24 7
 6 -4 2 52935.5 1432.29 22
 -6 2 -4 52858.6 1428.41 6
 2 -6 4 51196.3 1382.71 7
 4 6 2 54855.4 1445.12 17
 4 2 -6 54345 1514.4 23
 6 -4 -2 51221.4 1444.06 23
 4 -6 2 52461.7 1439.06 22
 4 -2 -6 54095 1407.83 23
 6 2 -4 52666.3 1499.92 23
 -4 2 -6 51519.5 1423.35 26
 2 4 -6 51769.8 1396.32 14
 4 6 -2 53465.4 1477.76 21
 2 -4 6 50707.2 1418.72 22
 -2 6 -4 53110.7 1492.03 26
 4 -2 6 54755.8 1493.37 22
 6 2 -4 53350.6 1508.74 14
 6 -2 -4 51817.4 1497.88 15
 6 -4 -2 52570.2 1467.03 15
 2 -6 4 51462.7 1463.71 22
 -2 6 -4 49804.1 1482.34 23
 2 6 -4 52995.1 1469.89 25
 4 2 -6 51824.8 1478.93 14
 -4 -2 -6 53145.8 1405.91 5
 -4 6 -2 51614.7 1517.72 20
 -2 4 -6 52396.4 1414.29 5
 -4 -6 2 52061.5 1468.84 22
 -6 -4 -2 54018.3 1443.27 16
 -6 2 4 52649.3 1454.96 16
 6 -4 -2 50562.4 1436.93 13
 4 -2 -6 53092.6 1463.73 14
 -4 6 -2 51385 1512.31 25
 -2 6 -4 50911.1 1383.78 21
 -4 2 -6 49265.9 1418 24
 2 6 -4 53668.9 1487.56 24
 2 6 -4 53860.3 1490.01 21
 4 -6 2 49971.6 1486.43 13
 -2 -4 -6 52640.8 1362.03 6
 6 -4 2 49701.9 1439.36 13
 4 -2 6 53406.9 1531.59 13
 -4 -2 -6 53168.6 1465.38 6
 2 -6 4 51894.6 1478.76 13
 -6 4 -2 49676.5 1536.1 26
 2 6 4 55602.5 1534.67 17
 6 4 -2 53133 1430.41 25
 -6 2 4 55413.5 1510.8 8
 6 -2 4 52016.5 1434.71 13
 6 4 2 52364.9 1400.36 17
 -2 4 -6 52493.9 1474.07 20
 4 2 -6 54757.4 1515.61 25
 -6 -2 -4 52989.5 1462.96 20
 -4 2 -6 51838.9 1445.51 25
 -4 2 -6 49727.2 1519.69 20
 -4 6 2 52537.1 1431.98 8
 2 -4 6 54825.5 1530.59 13
 -4 -2 -6 53377.4 1530.7 20
 -2 4 -6 51722.1 1501.8 24
 -4 2 -6 53584.1 1485.12 6
 -4 6 -2 50647.6 1412.84 21
 2 6 4 51325.8 1401.87 19
 -4 2 6 52145 1440.28 8
 4 6 2 52755.9 1463.49 19
 4 6 -2 52131.6 1442.83 19
 -2 -4 6 53115.3 1491.26 7
 6 4 2 53702.8 1442.8 19
 6 -2 -4 53194.8 1480.69 24
 6 4 -2 52456.4 1455.28 19
 -6 4 2 51585.2 1539.84 20
 -2 4 -6 54055.2 1490.2 6
 6 2 -4 52881.8 1429.83 19
 -2 4 6 55412.5 1463.09 17
 6 -2 -4 52679.4 1439.02 14
 -4 -2 6 53962.8 1495.74 18
 6 2 4 52410 1502.78 17
 -4 -6 2 53812.1 1478.66 7
 2 -4 6 51569.5 1370.44 18
 -6 -2 -4 53951.9 1466.59 5
 -2 6 -4 53690.2 1520.6 25
 -4 2 -6 50209.5 1433.06 23
 -4 2 6 53077 1439.8 18
 4 -2 -6 54706.2 1408.03 24
 -2 6 -4 55633.9 1476.09 6
 -2 6 -4 49892.6 1477.65 24
 6 -2 4 50706.1 1513.61 17
 4 2 6 51136.9 1516.07 17
 -2 4 -6 51262.8 1482.91 26
 6 -4 2 49478.9 1393.23 15
 4 2 -6 52870.8 1391.49 15
 -6 4 -2 52936.7 1400.46 16
 2 4 6 52141.6 1505 17
 -4 6 -2 52123.7 1433.72 5
 -6 4 2 48936.1 1490.38 26
 -4 4 -6 33593.8 1216 20
 -4 6 -4 30270.6 1167.24 23
 -6 -4 -4 32941.1 1133.44 5
 4 6 -4 34067.3 1147.11 26
 4 4 -6 35263 1215.06 24
 -4 6 -4 32244 1177.34 26
 -4 -4 -6 33694.2 1077.14 5
 -6 4 -4 31875.4 1203.94 24
 -4 4 -6 33350.2 1137.87 5
 -4 -6 -4 35077.6 1116.09 16
 -4 6 -4 32092.6 1196.52 24
 4 4 -6 35553.9 1219.04 25
 -4 -6 4 33274.5 1121.54 22
 4 -6 -4 30833.4 1058.99 15
 -4 6 4 32279.7 1144.27 8
 -4 -6 4 35748.2 1115.28 16
 -4 -6 4 35081 1199.88 7
 6 -4 -4 31260 1143.37 15
 4 -4 6 33062.4 1154.78 22
 4 6 -4 32825.3 1146.04 24
 -4 6 -4 32522.4 1183.71 20
 -4 -4 -6 32731.9 1117.49 6
 4 -6 4 34055.5 1165.63 22
 4 6 -4 32539.1 1134.08 23
 -6 4 4 33270.7 1167.83 8
 6 -4 4 32078.6 1148.63 13
 4 4 -6 34128.6 1142.88 14
 4 6 4 32471.3 1158.6 17
 4 4 6 33311 1197.63 17
 6 -4 -4 31940.7 1106.03 24
 6 -4 4 33476.6 1164.18 22
 -6 4 -4 33201.6 1217.47 26
 6 4 -4 31145.3 1125.15 14
 -6 -4 4 32797.1 1114.35 7
 -4 -4 6 31704.5 1152.66 7
 6 4 -4 34848.7 1186.2 23
 -4 4 -6 33962.1 1181.05 26
 -4 6 -4 33048.5 1150.54 5
 4 -6 -4 33589.9 1211.19 13
 6 -4 -4 32084.1 1126.46 13
 4 -6 4 31634.8 1171.05 13
 -4 6 -4 32337 1084.58 6
 4 6 -4 32426.3 1161.21 21
 -6 4 -4 31739.5 1216.72 20
 4 6 -4 34020 1085.19 19
 -4 -4 -6 34171.7 1167.84 20
 4 6 -4 35258.9 1166.26 25
 4 6 4 32142.6 1075.01 19
 -6 4 -4 33463.8 1085.08 6
 -6 4 -4 34681.3 1167.67 5
 -4 4 -6 35835 1188.5 6
 6 4 -4 32565.7 1093.1 19
 6 -4 -4 31914.4 1102.98 23
 4 -4 6 33134.7 1201.38 13
 -4 6 -4 33180.3 1211.4 25
 -4 4 6 32078.9 1147.3 8
 4 -4 6 33647.4 1180.31 17
 4 -4 -6 32436.3 1152.53 15
 4 4 -6 32206.2 1081.32 6
 6 4 -4 34763.4 1187.36 25
 6 4 4 31839.4 1139.89 17
 4 4 -6 33575.9 1194.15 23
 6 4 -4 32712.3 1152.11 24
 -6 4 4 29079.2 1115.12 26
 -6 4 4 33364 1153.72 16
 -4 4 -6 31760.8 1164.65 24
 -6 4 -4 33675.6 1224.46 25
 -4 4 -6 33908.3 1201.87 25
 -4 4 -6 32881.6 1184.97 23
 -6 -4 4 34651.7 1120.97 16
 0 6 -6 28569.7 1118.87 23
 -6 6 0 26921 1103.64 24
 0 6 -6 28451.6 1097.28 26
 6 0 -6 29774.9 1100.33 23
 6 0 -6 29060 1084.91 15
 -6 6 0 28366.9 1136.59 25
 -6 0 -6 28321.9 1056.14 5
 6 0 -6 29544.4 1093.22 24
 0 -6 6 29172.7 1062.46 7
 6 0 -6 29017.4 1102.38 14
 0 -6 6 28504.1 1042.73 22
 0 6 -6 29899.9 1027.8 21
 0 6 -6 28330.1 1097.85 25
 6 0 6 26381.1 1099.1 17
 -6 -6 0 29090.1 1084.44 16
 -6 0 -6 28824.2 1088.43 6
 -6 0 -6 28180.4 1131.03 20
 0 6 -6 28487.8 1010.64 5
 0 6 -6 28982.5 1095.93 6
 6 6 0 28660 1073.23 19
 -6 6 0 27748.5 1136.04 20
 0 6 6 28560.2 1097.77 17
 -6 0 6 28704.5 1040.01 8
 0 -6 -6 27993.8 1002.7 15
 6 -6 0 27133 1076.86 13
 0 6 -6 28077.7 1105.92 24
 -6 6 0 28060.4 1121.46 26
 2 -6 6 24866.5 1019.2 13
 6 2 -6 23964.6 1014.42 14
 -6 2 6 24408.2 992.975 8
 -6 6 -2 25021.2 1073.11 25
 -6 -6 2 25158.6 1000.51 16
 -2 6 -6 25352.9 1054.02 25
 -2 6 -6 24979.6 1028.37 26
 6 -6 2 25057 955.148 22
 -6 -6 2 24419.1 982.176 22
 2 6 -6 25840.5 1040.91 25
 -6 6 2 23227.4 985.771 25
 6 -6 -2 23569.2 945.063 23
 -6 2 -6 23088.9 959.592 24
 2 6 -6 25069.8 1028.07 23
 -6 -2 -6 24866.5 975.736 5
 -6 6 2 23289.4 977.897 26
 -6 6 -2 23022.4 1038.46 24
 6 -2 -6 23840.5 1015.34 15
 2 6 -6 26339.8 1056.86 24
 2 -6 -6 24612.4 1051.8 13
 -6 6 2 24266.8 962.462 8
 2 6 -6 25676.7 1014.6 6
 -6 2 -6 24410.4 987.982 5
 -6 -2 6 23855.6 984.344 7
 6 2 6 24512.5 1043.33 17
 2 -6 6 23480.5 963.618 22
 6 2 -6 24415.8 1024.95 23
 -2 6 -6 25409.3 1047.07 24
 6 -2 -6 24832.7 968.726 23
 6 -2 -6 24890.8 990.039 14
 -2 -6 6 25032 956.242 22
 -6 6 -2 25180.1 1089.62 20
 -6 6 -2 25200.4 965.329 5
 2 6 -6 26491.6 1048.33 26
 -6 -2 -6 23803.7 990.97 6
 -6 2 -6 24520.4 993.635 6
 6 -6 -2 25216.8 1033.54 13
 -6 6 -2 24691.1 1067.9 26
 2 6 6 24460.3 1031.39 17
 2 6 -6 24230.7 974.017 21
 6 -2 -6 22881 941.052 24
 2 -6 -6 23236.3 931.728 15
 -6 2 -6 23416.8 1049.15 20
 -6 -2 -6 24219.2 1015.01 20
 6 -2 6 24328.9 999.348 13
 6 2 -6 24135.5 1015.77 24
 -6 2 -6 24228.4 975.695 25
 6 6 2 24046.2 971.837 19
 6 6 -2 24419.6 983.245 19
 6 -2 6 23749.4 1039 17
 6 2 -6 23786 1015.66 25
 -6 -6 -2 25664.5 998.517 16
 -6 -2 6 24805.8 961.8 18
 -2 6 -6 24897.9 1011.49 6
 6 -6 2 25391.4 1035.8 13
 -2 6 6 25442.8 1017.56 17
 -6 2 6 21927.2 970.822 26
 6 6 -2 23672.2 959.615 21
 -2 6 -6 24147.6 1030.77 23
 -6 2 -6 24385.9 977.143 26
 -2 -6 6 24413.9 1007.03 7
 -2 6 -6 24580.9 972.11 5
 4 6 -6 16040.7 845.385 24
 -6 -4 6 15900.7 377.733 47
 -6 -6 4 16223.1 392.494 43
 6 -4 -6 15500.6 825.658 15
 -6 6 4 17381.9 382.24 48
 4 6 6 16324 380.715 48
 -4 6 6 17290.3 391.401 37
 6 4 6 16923.2 380.793 39
 -4 6 6 16704 398.819 40
 6 6 -4 15288.8 781.737 23
 4 -6 6 16916.8 386 30
 4 -6 6 16474.2 389.221 35
 6 6 -4 16897.8 397.12 46
 4 6 -6 17082.8 408.275 46
 6 4 -6 16776.4 402.419 46
 -6 4 -6 14505.1 824.475 24
 -4 6 -6 14861.6 818.36 26
 -6 -6 4 16439.7 813.192 7
 -6 -4 -6 16064.1 818.531 6
 4 6 -6 16782.2 858.597 23
 6 -4 6 16653.6 388.106 30
 -6 6 4 15793.9 819.539 8
 -6 4 6 17065.4 402.44 37
 6 -6 4 16495.9 381.11 44
 4 6 -6 16955.7 859.519 25
 -4 6 -6 15666 857.583 25
 6 4 -6 17430.1 395.513 38
 4 6 -6 16356.6 387.267 42
 4 6 -6 15900.8 833.007 26
 6 6 -4 16749.8 810.929 25
 -4 -6 6 17172.6 866.115 7
 6 6 -4 16501.1 383.224 39
 -6 6 -4 14315 842.439 24
 -4 6 -6 15089 849.418 24
 6 -6 -4 15818.3 793.839 15
 -6 6 -4 15946.9 387.903 33
 -6 6 -4 16195.2 397.662 40
 6 -6 4 16534.4 382.116 30
 6 6 4 16756.1 374.651 39
 -6 6 -4 14804.8 845.37 25
 6 4 -6 17257.3 874.473 24
 6 4 -6 16147.2 822.383 14
 -6 -4 6 16809 395.455 43
 6 -6 4 14250.5 802.245 13
 -6 4 6 16348.1 391.435 27
 -6 6 4 16038.2 382.603 32
 6 -4 6 17298.9 863.514 22
 6 -4 6 16639.3 386.504 36
 6 6 4 16804.8 824.246 17
 4 -6 6 16726.9 383.916 36
 6 6 -4 15142 773.29 24
 4 -6 6 16312 826.976 22
 -4 -6 6 17007.7 397.105 36
 -6 -4 6 16285 386.052 36
 -4 6 6 16358.3 377.939 48
 6 -6 -4 14505.8 805.811 13
 -6 6 -4 16759.1 830.903 5
 -6 4 -6 16021.7 818.074 5
 -6 -4 6 15632 817.56 7
 6 6 -4 16656.3 394.765 38
 4 -6 -6 16429.4 871.968 13
 -6 -6 -4 15491.9 798.102 5
 -4 6 6 16500.5 379.765 32
 6 -4 -6 15538.7 798.798 13
 4 -6 6 16695.5 380.612 41
 -6 6 -4 15932.8 393.595 34
 -4 6 -6 16450.2 824.747 5
 6 -6 4 16254.7 824.767 22
 6 4 -6 15749.8 845.259 25
 -6 4 -6 14718.2 824.397 25
 4 6 -6 16372.7 835.803 21
 6 6 -4 15912.6 824.014 21
 -6 6 4 16156.1 397.813 40
 -4 -6 6 16312.8 387.359 43
 6 6 -4 17556.8 399.966 33
 6 4 6 15874.2 844.33 17
 -6 4 6 16855.6 397.431 32
 -6 6 -4 16456.3 891.557 20
 -6 4 -6 16406.5 395.305 34
 -6 4 -6 17010.8 403.029 40
 -4 6 -6 15933.9 836.094 20
 -6 4 -6 15148.9 863.914 20
 4 -6 6 15915.4 850.229 13
 6 4 6 16864 374.601 45
 6 -4 6 14772.9 812.349 13
 6 6 4 16103.2 373.816 45
 6 -6 4 15966.7 373.454 50
 6 -6 4 16846.4 387.001 31
 4 -6 6 15746.1 369.383 31
 4 -6 -6 15287.6 776.769 15
 6 -6 4 16229.9 383.818 35
 -4 6 6 16515.8 394.884 27
 -6 -4 -6 16269.8 788.261 5
 6 4 -6 16109.1 850.669 23
 6 -4 6 16801.9 379.988 41
 4 6 6 17069.7 381.604 45
 -6 4 -6 17608.3 837.892 6
 6 6 -4 15588.1 769.709 19
 4 6 6 15163.7 829.801 17
 -4 -6 -6 17415.9 810.705 6
 6 4 -6 16343.6 401.063 49
 6 -6 -4 16923.5 386.2 29
 -6 -4 6 16675.8 827.953 18
 6 4 6 16150.5 376.854 48
 -4 6 -6 16656.7 823.245 6
 -6 6 4 16141.6 385.741 37
 6 -4 6 16379.4 374.672 31
 -6 6 -4 14405.3 837.056 26
 4 6 6 16053.2 374.16 28
 6 -4 6 14483.2 823.669 17
 6 6 4 16823.4 389.27 28
 -6 4 -6 16458 863.661 26
 6 4 6 17168.8 383.418 28
 -6 4 6 16549.9 395.531 40
 6 -4 6 16487.5 390.344 35
 -4 6 -6 15586.7 853.931 23
 -4 -6 6 16868.4 388.89 41
 -4 6 -6 16206.6 401.571 34
 4 6 -6 17180.4 406.489 49
 6 6 -4 16543.9 396.266 49
 -6 4 6 16173.4 837.443 8
 -6 -6 4 15920.8 779.981 16
 6 -6 6 8479.94 634.517 13
 6 6 -6 7820.97 592.708 26
 6 -6 -6 8428.87 616.336 13
 6 -6 6 7962 231.222 44
 6 -6 6 8298.38 246.216 30
 -6 -6 -6 7358.66 543.757 5
 -6 6 -6 7186.93 601.855 25
 -6 6 6 8808.75 259.315 37
 6 6 -6 7719.97 590.306 25
 -6 6 6 7281.52 578.49 8
 -6 -6 6 8329.19 243.853 41
 6 -6 -6 7434.38 563.352 15
 -6 -6 6 8214.23 607.801 7
 -6 6 -6 8322.77 257.317 40
 -6 6 6 8194.41 253.724 27
 -6 -6 6 8297.3 252.304 43
 6 6 -6 8423.27 251.236 38
 6 6 -6 8789.81 629.796 23
 6 6 -6 8491.45 262.078 46
 -6 6 -6 7604.85 622.564 24
 6 6 6 8194.74 237.762 45
 6 6 -6 8399.07 262.472 49
 6 -6 6 7355.34 574.855 22
 -6 -6 6 8516.12 255.508 36
 -6 6 6 8335.29 249.823 32
 -6 6 -6 8183.16 604.161 5
 -6 6 -6 8154.97 257.152 34
 -6 -6 -6 7294.81 565.556 6
 6 6 -6 7945.17 599.036 21
 -6 6 -6 7464.9 614.163 20
 -6 6 -6 8103.72 638.438 26
 6 -6 6 8134.17 239.064 31
 6 -6 6 8620.12 253.648 35
 6 6 -6 8648.66 629.05 24
 6 6 6 8695.6 247.253 28
 6 -6 6 7402.27 593.172 17
 -6 6 6 8217.99 257.764 40
 6 6 6 8155.01 236.647 48
 6 6 6 8271.85 616.153 17
 7 -1 1 9460.09 514.49 23
 1 7 1 9792.79 517.395 17
 -1 7 -1 9618.91 475.861 26
 -7 -1 -1 9040.66 490.413 16
 1 7 -1 10255.7 522.178 19
 1 1 -7 10561.8 517.11 26
 -7 1 -1 9535.66 504.098 16
 -7 1 1 9348.61 515.918 16
 -7 1 1 9819.62 566.596 25
 -7 1 -1 9138.62 531.683 26
 -7 -1 1 9987.67 461.039 5
 1 1 -7 9941.45 506 25
 1 1 -7 9475.54 497.204 15
 7 1 1 8707.57 510.663 15
 -7 -1 1 9459.16 543.406 26
 1 7 -1 9731.09 525.803 21
 1 -7 -1 9384.29 480.932 22
 -1 1 -7 9593.97 514.674 14
 1 -7 -1 10087.9 550.689 7
 -7 1 -1 9692.7 489.41 5
 1 1 -7 9908.62 477.33 6
 7 -1 -1 8801.47 517.188 15
 -1 -7 -1 9529.72 531.772 7
 -1 -7 1 10054.3 545.027 7
 7 -1 1 9330.93 531.612 15
 -7 -1 -1 9251.62 513.629 25
 1 -1 -7 9994.43 533.252 15
 7 1 -1 9422.07 518.393 24
 1 1 -7 9873.21 506.009 23
 -1 7 -1 8980.98 490.65 19
 7 1 -1 9621.21 519.715 23
 -1 7 1 9496.83 531.787 21
 7 1 1 9228.08 484.089 23
 7 -1 -1 9417.9 525.739 23
 7 1 -1 9608.53 526.351 14
 -1 -7 1 9206.37 517.587 22
 -1 -7 -1 9994.08 521.454 22
 1 1 -7 9251.32 512.727 14
 1 -7 -1 9482.96 515.433 13
 -1 7 -1 8893.42 505.474 21
 1 7 1 9476.14 511.086 21
 -1 7 -1 9734.65 486.162 25
 7 1 1 9293.64 485.372 17
 1 -7 1 9479.82 510.928 13
 -1 7 -1 9924.14 477.278 6
 -1 -1 7 10030.3 522.563 7
 -7 1 -1 10013.2 553.768 20
 -7 -1 -1 9617.11 492.64 5
 7 -1 -1 8521.08 477.882 14
 -1 1 -7 10076.4 491.29 25
 -1 -1 -7 9271.08 465.459 6
 -7 1 1 8573.85 525.36 26
 -7 1 -1 9121.43 536.697 25
 -1 7 1 9357.61 516.71 19
 1 7 1 9499.37 516.989 19
 7 1 -1 10839.9 549.64 19
 -1 1 -7 9458.87 495.636 6
 -7 1 1 9661.23 522.102 20
 -1 7 -1 8632.86 461.475 23
 -7 -1 -1 9245.37 505.331 26
 1 -1 -7 9933.01 532.126 14
 -1 1 -7 9902.25 493.449 24
 7 1 -1 8956.08 510.412 15
 7 1 1 9446.65 498.505 19
 1 1 7 9611.89 495.091 17
 -1 -1 7 9716.3 540.737 18
 -1 1 -7 9505.17 537.322 20
 1 -1 7 9971.11 533.478 18
 -1 1 7 9630 541.439 18
 1 1 7 9783.96 537.937 18
 7 -1 1 9033.46 498.987 17
 1 -7 1 9961.68 523.441 22
 -7 -1 1 9788.74 527.076 16
 1 1 -7 9905.55 509.991 24
 1 -7 1 9191.64 522.354 7
 -1 -1 -7 10016.8 534.58 14
 -1 1 -7 9555.68 479.461 26
 -1 1 -7 9811.75 494.377 23
 -1 7 -1 9099.95 467.89 24
 -3 7 1 7412.81 496.205 21
 -1 3 -7 8101.24 492.6 26
 -7 -3 1 8571.79 508.595 16
 1 7 -3 8476.06 483.222 26
 -7 -1 3 7522.38 515.089 26
 -1 7 3 7702.08 492.378 21
 -7 3 1 7053.31 501.453 26
 -7 1 -3 7732.8 493.536 26
 -1 -7 3 7701.93 492.712 22
 3 -1 7 8740.23 514.373 17
 -3 -7 1 7767.18 490.029 7
 -7 -3 -1 7381.37 458.774 5
 7 3 -1 8279.28 474.64 24
 -1 7 -3 8324.49 499.142 24
 -7 3 1 7488.02 478.721 16
 -7 1 -3 8150.13 525.345 20
 -7 3 -1 7490.53 462.903 16
 -7 3 -1 7530.72 517.789 26
 1 3 -7 7580.78 486.678 25
 3 -1 -7 7555.61 488.296 15
 -1 7 -3 8138.24 495.807 25
 1 3 -7 8467.56 518.104 24
 3 1 -7 7664.74 475.297 25
 -7 -1 -3 7388.04 469.172 5
 1 -3 -7 8081.22 500.678 15
 -3 1 -7 7412.4 467.757 14
 -3 1 7 7734.37 438.934 8
 3 1 -7 8278.8 484.232 15
 -3 7 -1 7760.71 483.631 26
 3 1 -7 8154.69 488.089 24
 1 7 -3 8662.45 494.491 24
 3 -7 -1 7848.36 509.418 13
 -7 1 -3 7940.84 483.023 5
 7 -1 -3 7315.8 491.015 15
 7 1 -3 8033.09 496.708 15
 3 -7 1 7512.5 471.172 7
 3 -7 1 8232.06 479.913 22
 1 -7 -3 7362.31 485.556 13
 3 1 7 7080.61 479.645 17
 -1 3 -7 7843.01 491.871 24
 1 -7 3 8089.85 488.932 7
 -1 -3 -7 7724.68 484.82 14
 1 7 -3 7675.54 470.923 23
 -1 3 -7 7872.86 495.962 23
 -7 3 -1 8003.94 460.039 5
 -1 -3 7 8839.79 533.591 18
 1 7 3 8941.56 532.146 17
 -1 3 -7 7707.95 451.435 14
 7 3 -1 7916.7 464.907 23
 7 -1 -3 8301.45 515.473 23
 3 1 -7 8015.06 505.178 14
 7 -3 -1 7363.56 481.618 23
 7 -3 1 8157.67 504.613 23
 7 3 -1 6801.38 435.176 15
 7 1 -3 8229.8 511.819 23
 7 -1 -3 7450.14 474.542 14
 7 1 -3 7854.59 501.262 14
 1 -7 3 8550.65 516.15 22
 -7 1 -3 7312.21 485.953 25
 -3 7 -1 7952.38 489.668 24
 -7 3 -1 7304.16 516.569 25
 7 -1 -3 7047.74 481.513 24
 7 3 -1 6931.76 468.237 14
 1 7 -3 9134.38 502.132 25
 -3 -7 1 7839.53 498.021 22
 -1 -7 -3 7534.91 445.392 22
 -1 7 -3 7303.56 471.971 23
 -3 -7 -1 7927.13 501.365 22
 -3 -1 7 7861.19 503.045 7
 1 7 3 7438.57 456.376 21
 -3 7 -1 8106.05 500.788 21
 7 -3 1 7176.41 474.632 15
 -7 -1 3 7847.15 488.868 16
 -1 7 -3 8014.45 484.518 21
 3 7 1 7597.49 457.987 21
 3 7 -1 8545.5 506.753 21
 -7 -1 -3 8024.45 484.164 6
 -1 -3 7 8188.12 495.26 7
 7 -3 1 7959.61 454.205 13
 -3 7 -1 7259.67 468.602 20
 -7 3 1 7607.62 510.987 20
 -1 -7 3 8292.23 512.925 7
 -1 3 7 7850.71 462.749 17
 -3 7 -1 7776.65 467.645 5
 -7 3 -1 7770.82 527.906 20
 -7 1 -3 7876.84 457.622 6
 -7 -1 -3 8693.6 511.685 20
 7 1 3 7121.83 474.737 17
 3 -7 1 7520.84 495.516 13
 -1 7 -3 6698.25 452.241 5
 -1 7 -3 8016.02 478.248 6
 -1 3 -7 8304.77 498.594 20
 -3 -1 -7 7416.48 461.584 6
 -3 1 -7 8064.54 530.168 20
 -3 -1 -7 8440.23 537.989 20
 3 7 1 7665.17 452.342 17
 1 -7 3 7243.75 461.716 13
 -1 7 3 7475.28 475.092 19
 -3 1 -7 7750.25 482.299 6
 1 3 -7 8720.64 517.267 26
 1 7 3 6992.74 458.25 19
 1 7 -3 7965.58 451.432 19
 3 7 1 8457.29 508.241 19
 3 7 -1 8089.54 491.094 19
 -7 -3 1 7114.13 466.866 26
 7 3 1 7329.02 461.006 19
 7 3 -1 7647.43 479.675 19
 3 1 -7 7986.35 486.295 23
 7 1 3 8240.05 447.003 19
 -3 7 -1 7984.57 489.631 25
 -1 3 -7 7754.18 486.216 6
 7 1 -3 8133.68 493.242 19
 7 -3 -1 7353.29 488.35 15
 -7 -3 -1 8136.73 484.382 16
 1 -3 7 7632.54 473.725 18
 -3 -1 7 8150.72 517.728 18
 -1 3 -7 7334.91 471.359 25
 1 3 -7 8352.48 483.45 14
 -3 1 7 8306.62 512.376 18
 1 3 -7 7905.69 474.475 6
 3 -1 7 7697.53 456.738 18
 -3 1 -7 8128.96 449.336 5
 1 -3 7 7965.22 450.448 22
 7 -1 3 7262.66 489.482 17
 1 -3 -7 7776.62 478.807 14
 1 3 7 7804.56 488.472 17
 -3 -7 -1 7576.64 475.508 7
 -7 1 3 8156.24 500.292 16
 1 7 -3 8399.69 507.865 21
 -7 1 3 7376.25 516.476 26
 1 7 -3 7205.28 467.814 6
 -7 3 1 7777.6 530.733 25
 3 -1 -7 8047.77 501.565 14
 -1 7 -3 8372.77 491.405 26
 7 1 -3 8548.5 523.021 24
 1 3 -7 7846.2 496.794 23
 -7 3 1 7673.5 473.095 8
 -7 -3 -3 6385.22 419.157 16
 3 7 3 6412.79 458.685 17
 -3 -7 3 7027.65 460.239 16
 3 3 -7 6770.39 431.902 6
 -3 3 -7 6829.83 467.128 26
 3 3 -7 6618.5 475.427 25
 3 -7 3 6113.69 446.969 22
 -3 7 -3 5731.22 399.742 6
 -7 3 3 6580.15 468.448 8
 -3 7 -3 5821.31 451.699 25
 3 -3 -7 6075.46 455.604 15
 3 7 -3 6444.84 433.476 23
 7 3 3 5939.3 435.687 17
 3 -3 -7 6675.66 458.81 14
 -3 -3 -7 6445.9 434.609 6
 3 -7 3 6314.35 420.938 7
 -3 3 7 6097.52 433.747 8
 3 3 -7 6964.03 496.658 24
 3 7 -3 6746.36 444.499 24
 -3 -7 -3 5958.32 424.412 7
 -7 3 -3 6126.76 478.257 25
 -3 7 3 6242.26 476.957 21
 -3 3 -7 6482.1 427.865 5
 -3 3 -7 6239.41 454.594 25
 -7 3 -3 6780.49 461.767 5
 -3 7 -3 6211.43 434.923 21
 3 3 -7 6898.49 488.552 23
 3 -3 7 5675.39 459.084 13
 -3 7 -3 6101.15 462.522 24
 7 3 -3 6925.41 479.692 23
 -7 -3 3 6697.02 459.504 16
 3 3 -7 6959.39 471.505 14
 3 3 7 6110.12 464.428 17
 3 7 -3 6630.72 437.729 25
 3 -3 7 6300 441.048 22
 -7 3 3 5993.01 478.447 25
 7 3 -3 5916.44 452.36 14
 7 -3 3 6012.29 423.678 13
 -3 -7 3 7080.19 483.606 22
 -3 3 -7 6752.24 470.672 23
 -3 -7 -3 6338.2 459.161 22
 7 -3 -3 6471.77 466.324 23
 -7 3 -3 5960.53 472.37 26
 3 7 -3 7175.93 452.467 26
 3 7 -3 5880.12 448.083 21
 3 -3 7 6053.55 437.66 17
 -3 7 -3 6143.33 444.825 5
 -7 3 3 6329.88 459.854 16
 3 -7 3 6216.54 468.094 13
 -7 3 -3 6517.55 504.825 20
 -3 3 -7 6361.95 482.688 20
 -3 -7 3 6519.92 473.182 7
 3 7 3 6181.52 440.314 19
 3 7 -3 6659.15 440.179 19
 -3 3 -7 7039.13 483.445 6
 -3 -3 -7 6146.35 469.882 20
 7 3 3 6862.63 436.058 19
 7 3 -3 6723.42 460.346 19
 -3 -3 7 5892.81 451.138 7
 -3 -3 7 7149.22 502.041 18
 -7 -3 -3 6499.26 453.583 5
 7 -3 3 5607.25 448.933 17
 -3 3 -7 6283.44 458.706 24
 -7 3 3 6139.57 486.365 26
 -7 3 -3 5891.73 472.56 24
 -3 7 -3 5897.25 453.401 23
 -3 7 -3 6328.3 459.556 26
 7 -3 -3 6397.72 471.137 15
 7 3 -3 6151.57 450.698 24
 3 -7 -3 5709.81 460.554 13
 -7 -1 5 5311.44 467.699 26
 -5 -7 1 5847.72 457.375 16
 5 1 -7 5238.03 429.461 24
 1 7 -5 4980.01 421.563 6
 -1 -5 -7 5353.7 421.498 15
 1 -5 7 5572.72 419.105 22
 -1 5 -7 4580.38 419.281 24
 7 -5 -1 4927.87 416.452 23
 7 -5 -1 5279.99 422.371 15
 5 -1 -7 5615.95 449.55 14
 -5 -1 -7 5378.38 411.768 5
 -7 5 1 5081.21 450.451 26
 -5 -7 -1 5328.27 436.421 16
 7 1 -5 5209.09 437.481 23
 -7 5 1 5363.85 411.428 8
 -5 7 -1 5402.67 453.756 25
 -7 -5 -1 5329.21 426.088 16
 -7 -5 1 5294.31 434.982 16
 -1 5 -7 5032.96 438.462 23
 -1 7 -5 4835.6 428.981 25
 -1 7 -5 5681.9 446.368 6
 7 5 1 5054.98 417.07 19
 -7 -1 5 5271.58 419.3 8
 -7 5 1 4757.25 446.228 25
 -7 -1 5 5692.4 429.59 16
 -7 1 5 5137.53 425.639 8
 1 7 -5 5213.11 428.854 26
 -5 7 -1 5256.06 447.956 26
 -5 1 7 5085.02 399.162 8
 7 1 5 5074.33 443.235 17
 -7 -1 -5 4789.28 410.39 5
 1 -7 5 4731.51 397.595 7
 -1 5 -7 5799.84 461.469 26
 7 1 -5 4773.75 407.181 15
 1 5 7 5253.95 443.678 17
 -5 1 -7 4932.47 403.251 5
 -5 7 -1 4795.8 407.216 21
 5 -1 -7 4735.86 393.86 23
 5 -1 -7 4842.63 396.265 24
 -1 7 -5 4937.78 429.116 23
 7 -1 -5 4585.77 409.829 24
 -7 5 -1 5526.82 401.303 5
 1 5 -7 5340.5 447.173 23
 -1 5 -7 4793.98 429.083 25
 -7 5 -1 4737.93 451.444 25
 1 7 -5 5006.89 429.485 23
 -1 -5 -7 5754.93 424.735 14
 -5 -7 1 5103.98 408.084 7
 -1 -7 5 4896.84 421.836 7
 5 1 -7 5177.56 437.728 14
 -1 7 5 5460.81 423.588 21
 7 -1 -5 4721.99 410.295 14
 7 1 -5 5825.61 467.33 14
 -1 7 -5 5069.04 429.408 26
 -1 -7 5 5251.94 427.452 22
 -7 -1 -5 4951.15 417.315 6
 1 5 -7 5308.54 442.64 26
 5 1 -7 4917.36 419.79 23
 7 -1 -5 4550.88 413.442 15
 -1 -7 -5 5058.74 413.347 13
 -5 -7 1 5292.27 437.093 22
 1 -7 -5 4976.68 435.858 13
 -5 -7 -1 5057 434.671 22
 -5 7 1 5105.87 437.452 21
 -1 5 7 5521.59 439.601 17
 5 1 -7 4980.33 403.031 15
 1 5 -7 5379.37 447.855 25
 -7 -1 5 5225.33 409.782 7
 -7 1 5 4374.89 423.049 26
 -7 1 5 5685 433.382 16
 5 -7 -1 5047.09 439.838 13
 -1 7 -5 4809.01 386.095 21
 7 -5 -1 5358.82 429.857 13
 1 7 -5 5030.02 413.658 21
 -5 7 -1 4895.81 391.293 5
 5 7 -1 5186.07 413.923 21
 5 -7 1 5003.08 437.245 13
 7 -5 1 4984.3 416.444 13
 -1 5 -7 4738.21 377.008 5
 -7 5 1 5144.76 461.614 20
 -5 7 -1 4733.4 432.431 20
 -7 5 -1 4938.72 463.168 20
 1 7 5 5920.09 474.955 17
 1 -7 5 5497.58 433.265 13
 -7 1 -5 5627.67 475.837 20
 -1 7 -5 5683.36 437.682 5
 -5 7 -1 4830.06 431.433 24
 -5 -1 -7 5197.06 429.805 6
 -7 -1 -5 5316.26 443.749 20
 -7 1 -5 5029.61 410.457 6
 -5 1 -7 5587.51 479.081 20
 -5 -1 -7 4986.5 447.32 20
 1 -5 7 5254.49 434.629 13
 5 -1 -7 5117.51 409.234 25
 1 7 -5 5589.14 449.746 24
 5 1 7 5092.11 452.159 17
 -7 1 -5 5304.14 432.248 5
 5 -1 7 5151.14 452.049 17
 1 5 -7 5138.26 426.48 6
 1 -7 5 5208.1 427.707 22
 -7 5 -1 5182.52 465.961 26
 1 7 5 5018.96 395.685 19
 1 -5 -7 4927.05 409.747 15
 5 7 1 5950.81 460.517 19
 -5 1 -7 4846.89 417.627 6
 5 7 -1 4646.21 405.408 19
 7 1 -5 5323.84 444.552 24
 1 7 -5 5595.34 445.82 25
 7 5 -1 4922.14 414.388 19
 7 -1 5 6098.13 488.85 17
 -7 5 1 5014.68 428.827 16
 7 1 -5 4963.77 396.718 19
 7 -1 -5 4781.88 415.419 23
 -1 -5 7 5136.71 437.134 18
 1 -5 7 5510.09 420.456 18
 -5 -1 7 4931.65 416.215 18
 -1 7 5 5107.66 438.115 17
 -1 5 -7 5288.92 438.466 6
 -5 1 7 5201.56 411.66 18
 -1 7 -5 5198.12 437.771 24
 -1 -5 7 5891.82 450.549 7
 5 1 -7 5046.64 425.371 25
 -5 -1 7 4676.53 418.103 7
 5 -1 -7 5061.93 428.962 15
 1 5 -7 5614.82 461.015 24
 -5 7 -3 4289.67 164.352 34
 5 3 7 4237.32 147.433 45
 -7 3 -5 4372.13 166.561 40
 7 3 -5 4394.17 164.824 49
 5 -3 -7 3976.22 373.373 14
 3 5 -7 4374.88 164.03 42
 7 -5 3 4344.57 156.819 44
 -7 5 -3 4008.6 419.464 26
 3 7 -5 4347.55 165.899 46
 7 5 -3 4259.53 382.076 24
 -5 7 -3 4603.56 436.88 26
 5 3 -7 4407.86 166.007 46
 -5 3 -7 3594.51 365.637 26
 -7 3 -5 4127.15 409.929 25
 3 5 7 4240.8 150.194 45
 -7 5 3 3610.17 378.997 25
 -5 3 7 4322.82 163.996 37
 3 5 7 4396.29 425.916 17
 -5 -3 7 4542.82 162.941 43
 -7 5 -3 3984.71 420.685 25
 3 5 -7 4091.08 404.437 25
 -5 3 7 4453.3 403.182 8
 7 -3 5 4189.34 154.511 30
 -7 3 5 3222.23 363.386 26
 7 -3 -5 4393.05 161.176 38
 -7 3 5 3938.33 380.487 16
 -5 3 -7 3769.62 375.199 24
 -7 -5 3 3817.2 368.461 16
 -3 -5 7 4175.13 156.419 43
 -7 -3 -5 3638.56 367.838 5
 3 7 -5 4193.79 164.662 49
 -7 5 3 3757.91 377.058 8
 5 7 3 4258.27 150.214 45
 -5 -3 -7 4254.5 413.257 20
 5 -3 7 3970.73 386.561 22
 7 5 -3 3508.47 348.575 25
 -5 -3 -7 3910.61 354.081 5
 3 5 -7 3861.55 369.939 6
 5 -3 7 3624.87 389.108 17
 7 3 5 4329.13 155.33 28
 -7 5 -3 3885.35 416.328 24
 5 7 -3 4167.36 158.924 46
 -3 7 -5 4557.03 421.986 26
 3 -5 -7 4087.88 388.356 15
 5 3 -7 4079.42 161.188 49
 -5 7 -3 3990.39 410.328 24
 -7 3 -5 3969.8 387.93 5
 3 -5 7 4290.21 160.441 27
 -3 5 -7 4243.62 411.497 24
 -3 -5 7 4152.07 152.819 41
 3 7 -5 4489.55 412.776 24
 7 -3 -5 4359.26 419.463 15
 3 5 -7 4506.64 424.858 26
 3 5 -7 4428.49 424.995 24
 -3 7 5 4111.67 156.134 40
 7 -5 -3 3921.86 383.189 15
 -7 -3 5 4176.29 157.492 43
 5 3 -7 4678.56 430.686 25
 -7 5 3 4215.28 161.913 40
 -7 3 -5 4060.77 405.844 26
 7 -3 -5 3908.74 376.318 24
 5 7 -3 4486.83 154.739 39
 -5 7 -3 4509.71 399.777 5
 7 5 -3 4160.42 152.012 39
 7 5 3 4374.51 153.552 39
 7 3 5 4539.21 157.074 39
 5 3 -7 4324.18 414.582 24
 -5 3 -7 4085.08 391.288 25
 3 7 5 3922.16 396.989 17
 3 7 -5 4007.14 385.34 23
 7 -5 -3 4066.35 383.647 13
 -7 5 -3 4053.81 162.464 40
 7 5 -3 4392.94 162.166 38
 7 5 -3 3815.9 363.171 23
 5 -3 7 4432.03 157.829 41
 -5 -7 -3 4744.76 407.233 16
 -3 7 -5 4114.15 391.082 5
 -7 3 5 4158.87 162.952 37
 -7 5 3 3979.79 157.017 37
 7 -5 -3 3465.59 352.268 23
 -5 -7 3 3941.61 385.991 7
 -5 3 -7 3945.68 373.605 5
 -3 -7 5 4124.51 404.859 7
 -3 5 7 4363.54 161.107 27
 5 3 -7 4375.14 407.587 14
 7 -5 3 4399.25 392.349 22
 5 -3 7 4786.8 166.523 36
 -7 5 -3 4420.9 397.4 5
 -3 5 -7 3895.19 399.095 25
 3 -5 7 4298.76 159.38 36
 3 -5 7 3996.71 380.038 22
 5 -7 3 3915.99 372.022 22
 7 3 -5 3947.39 397.197 14
 3 -7 5 4196.77 398.283 22
 -3 -5 7 4076.26 156.993 36
 -3 -5 7 4452.59 413.756 7
 -3 -7 5 4348.91 160.165 36
 -7 -5 -3 4083.13 370.725 16
 3 5 7 4267.18 155.396 48
 -3 -7 5 4842.49 414.115 22
 7 -3 5 4343.49 158.172 35
 7 5 -3 3628.24 364.763 14
 5 -3 7 4543.8 160.04 35
 3 -7 -5 3775.19 402.342 13
 3 -5 7 4403.6 156.818 35
 -5 -7 3 4504.47 403.123 22
 3 -7 5 4236.1 156.029 35
 -5 7 -3 4255.77 418.104 20
 5 -3 -7 3810.22 372.072 13
 -5 7 3 4577.21 166.902 40
 -5 -3 7 4401.41 415.487 7
 3 7 -5 4793.19 420.88 26
 7 -3 -5 3694.44 365.877 23
 -7 -3 5 4142.08 375.945 7
 -5 3 7 4334.05 161.993 32
 -5 7 -3 3416.18 381.649 25
 -5 7 3 4641.47 170.129 34
 -3 5 7 4513.3 162.592 37
 -3 5 -7 4006.61 372.715 5
 -3 7 -5 4163.75 163.308 34
 5 -7 -3 3882.58 405.333 13
 -3 5 -7 4126.09 163.929 34
 -5 3 -7 4154 159.987 34
 -7 -3 5 4146.77 154.889 47
 -3 7 -5 3994.08 405.418 25
 5 -7 3 4118.7 151.952 44
 -5 7 -3 4208.23 161.974 33
 -3 7 5 4550.51 158.741 48
 3 7 -5 3229.08 354.75 21
 5 7 -3 3440.13 362.146 21
 -3 5 -7 3516.99 379.587 23
 -7 -3 -5 4130.8 395.755 6
 7 3 -5 3971.98 396.374 24
 3 5 -7 3725 367.566 21
 7 5 -3 3678.01 363.64 21
 5 -7 3 4036.67 406.684 13
 3 5 -7 4240.67 162.193 49
 7 -5 3 3860.9 378.965 13
 -5 7 3 4030.42 381.408 8
 -7 5 -3 4228.87 439.777 20
 -5 -3 -7 3990.66 380.969 6
 -7 3 5 4402.69 163.59 32
 3 -7 5 4106.23 403.001 13
 -7 5 3 4184.98 157.676 32
 -7 3 -5 3858.93 411.142 20
 -7 3 -5 3471.19 374.77 24
 -3 5 -7 3974.31 389.799 20
 3 -5 7 4239.3 155.441 41
 -5 3 -7 3687.95 401.072 20
 7 -3 5 4451.39 399.164 13
 3 -5 7 3727.01 390.361 13
 3 5 -7 4271.83 164.868 46
 5 -3 7 4120.9 412.157 13
 5 -7 3 4354.38 156.345 31
 -3 -5 -7 4918.13 428.257 20
 -3 7 -5 4053.22 409.801 23
 -7 3 -5 3900.19 361.599 6
 5 -3 7 4391.88 155.499 30
 3 -5 7 4327.06 151.708 30
 5 7 3 3893.1 372.252 19
 3 -7 5 4049.36 150.636 30
 -5 3 -7 3864.05 382.232 6
 7 3 5 4321.86 412.467 17
 5 7 -3 4202.21 380.93 19
 7 3 -5 3797.78 392.532 25
 7 5 3 4366.08 381.288 19
 -3 -7 5 4311.96 157.517 41
 -7 -5 -3 4402.35 402.91 5
 7 5 -3 4175.2 388.636 19
 -7 -3 5 3503.76 343.998 16
 7 3 -5 3823.81 354.068 19
 -5 3 7 4161.23 156.522 27
 -7 5 3 4269.23 418.361 26
 3 5 -7 3602.3 383.877 23
 7 -5 3 4389.74 157.497 31
 5 -3 -7 2965.85 344.349 15
 7 -5 -3 3947.56 150.864 29
 -5 -3 7 4143.47 397.775 18
 -3 5 -7 4547.42 416.463 6
 5 3 -7 3794.17 390.372 23
 5 7 -3 4453.94 164.208 33
 7 3 -5 4354.57 161.75 38
 5 3 7 4042.65 151.67 48
 5 7 -3 4457.26 162.635 38
 5 7 3 4360.39 158.536 28
 -3 7 -5 4010.37 379.609 6
 7 5 3 4338.17 156.592 28
 7 -3 5 3578.67 392.935 17
 5 7 3 3922.83 367.975 17
 -7 3 5 4404.38 413.789 8
 3 7 -5 4554.57 411.132 25
 5 3 7 4189.79 418.344 17
 5 -3 7 4128.09 155.586 27
 3 7 5 4509.89 153.215 45
 -5 7 3 4263.21 155.555 48
 -5 -7 3 4338.98 390.927 16
 -3 5 -7 4104.63 395.638 26
 7 3 -5 3737.15 389.224 23
 -3 7 -5 3715.23 390.323 24
 7 -5 5 1863.18 287.169 17
 7 -5 5 2588.21 119.212 44
 5 -5 7 2894.49 128.839 36
 7 5 5 2220.89 297.662 17
 5 5 7 2449.17 329.891 17
 -5 -5 7 2668.7 126.681 36
 -5 5 -7 2401.49 316.701 6
 5 7 -5 2478.12 127.374 46
 7 5 -5 2772.45 130.262 46
 5 5 -7 2577.08 131.46 46
 7 -5 -5 2524.89 309.579 13
 5 7 5 2521.05 117.426 45
 7 5 5 2569.25 114.812 45
 5 5 7 2652.8 118.896 45
 5 5 -7 2570.84 340.483 25
 -5 7 -5 2812.37 364.648 26
 -7 5 -5 2755.01 355.517 26
 5 7 -5 2686.88 132.376 49
 -5 7 -5 2539.76 317.97 5
 7 5 -5 2519.37 321.834 25
 5 -7 5 2498.62 114.636 44
 5 -5 7 2878.86 346.775 22
 5 5 -7 2530.67 343.944 24
 -7 5 5 2614.69 128.82 40
 7 -5 5 2628.33 124.488 35
 -5 -5 7 2520.98 124.559 43
 -7 5 -5 2342.79 328.931 24
 5 7 -5 2503.86 313.165 25
 -7 -5 5 3300.94 356.063 7
 5 -5 7 2698.35 123.461 41
 5 -5 -7 2746.85 335.933 15
 -7 5 5 2231.1 307.155 8
 -5 5 7 2100.57 292.164 8
 7 5 -5 2854.74 344.439 24
 -5 -5 7 2564.31 118.068 41
 -7 -5 5 2731.99 130.146 43
 5 7 -5 2646.35 327.751 24
 -5 7 5 2651.5 129.857 40
 -5 5 -7 2457.41 334.813 24
 -7 5 -5 2745.29 134.104 40
 7 5 -5 2679.38 122.153 39
 -5 7 5 2776.39 123.72 48
 -5 7 -5 2523.17 123.072 40
 -5 -7 5 2595.05 126.325 36
 7 5 -5 2788.93 130.234 38
 -5 5 7 2785.81 131.42 37
 -5 7 -5 2398.13 335.873 25
 -5 5 -7 2296.47 321.568 25
 5 7 -5 2218.12 296.866 23
 5 5 -7 2498.9 337.286 23
 7 5 -5 2236.21 308.205 23
 5 5 -7 2226.41 318.871 26
 -5 -7 5 2651.42 124.279 43
 7 -5 -5 2687.77 335.92 15
 5 7 -5 2564.6 312.693 26
 7 5 -5 3025.2 337.564 14
 -5 -7 5 2615.02 124.604 41
 5 -7 5 2624.55 124.393 35
 -5 7 -5 2668.57 132.492 34
 -5 5 -7 2712.67 133.058 34
 -7 5 -5 2235.54 329.942 25
 -5 -7 5 2577.28 330.895 7
 -5 -5 7 2566.17 330.642 7
 -5 5 7 2371.99 122.528 27
 -5 7 -5 2490.2 120.643 33
 -5 7 -5 2898.6 368.401 24
 7 5 -5 2575.81 330.778 21
 5 7 -5 2544.45 123.529 33
 7 5 -5 2707.11 126.803 33
 -5 5 7 2644.21 126.142 32
 -7 5 5 2828.6 131.578 32
 -7 5 -5 3193.28 395.166 20
 -5 5 -7 2272.58 319.131 26
 5 -5 -7 2503.1 331.654 13
 -5 -7 -5 2407.55 307.259 5
 5 -7 -5 2413.2 332.195 13
 -7 -5 -5 2350.84 304.997 5
 5 -7 5 2505.01 325.996 13
 7 -5 5 2457.38 323.726 13
 -5 5 -7 2493.71 124.865 40
 5 -7 5 2763.61 123.603 31
 7 -5 5 2623.83 323.082 22
 -5 7 -5 2646.15 336.789 20
 -5 5 -7 2850.77 358.367 20
 5 -5 7 2630.41 345.506 13
 7 5 5 2772.04 122.419 39
 -7 5 -5 2503.15 322.09 5
 7 -5 5 2452.28 119.423 30
 5 -5 7 2675.96 123.83 30
 5 -7 5 2717.44 123.786 30
 5 -7 5 3062.26 353.505 22
 -5 -5 -7 2519.9 313.617 6
 -7 5 -5 2560.47 124.611 34
 7 -5 -5 2517.54 117.85 29
 7 5 -5 2707.6 131.146 49
 7 -5 5 2635.82 122.313 31
 5 7 5 1907.01 281.142 17
 5 5 -7 2201.93 301.324 21
 5 -5 7 2525.71 327.517 17
 -5 5 -7 2973.01 341.794 5
 -5 -5 7 2583.93 329.054 18
 5 7 5 2706.98 124.447 28
 7 5 5 2608.64 122.799 28
 5 5 7 2617.31 121.178 48
 5 7 -5 2203.79 304.263 21
 5 5 -7 2622.03 131.878 49
 5 7 -5 2741.25 126.657 38
 -7 5 5 2699.1 130.388 37
 5 -5 7 2750.59 128.093 35
 -1 7 7 2586.32 121.676 48
 -7 1 7 2646.6 127.041 47
 -7 1 7 2733.53 129.458 37
 7 1 -7 2477.86 325.234 24
 1 7 -7 2522.71 122.194 46
 7 -1 -7 2054.58 291.839 24
 -1 7 -7 2295.71 312.215 6
 -7 -7 -1 3061.31 353.505 16
 7 -7 -1 2550.58 116.282 44
 -1 7 -7 3032.31 355.467 26
 1 7 -7 2491.83 323.867 6
 7 7 1 2685.13 123.642 38
 1 7 -7 2205.28 315.678 26
 7 1 7 2652.55 348.996 17
 7 -7 1 2451.93 117.692 44
 -7 -7 1 2224.39 306.693 16
 1 7 -7 2367.13 332.199 25
 -7 7 -1 2813.35 369.354 25
 7 7 1 2646.1 117.014 39
 7 1 -7 2213.34 307.684 25
 7 -1 -7 2494.63 315.316 25
 7 -7 1 2647.62 123.579 50
 7 -1 7 2712.57 123.941 41
 -1 7 -7 2408.35 326.976 24
 -7 7 -1 2576.48 126.156 34
 -1 7 -7 2176.5 316.403 25
 -7 7 1 2527.3 127.945 40
 -7 1 7 2409.54 311.786 8
 -1 -7 7 2561.73 121.85 41
 -1 7 7 2352.68 321.853 17
 1 -7 7 2538.96 120.211 41
 -7 7 -1 2715.68 132.262 40
 7 -7 -1 2281.03 298.602 23
 7 7 -1 2585.28 118.828 39
 1 7 -7 2297.03 325.648 24
 7 -1 -7 2626.18 335.598 15
 7 1 -7 2307.73 297.951 15
 7 1 7 2717.98 123.868 39
 7 -1 7 2367.37 115.578 39
 1 7 -7 2594.56 343.016 23
 7 7 -1 2713.73 127.543 38
 -1 -7 7 2481.96 118.991 35
 7 -1 -7 2570.74 125.037 38
 -1 7 -7 2239 314.983 23
 7 1 -7 2117.26 301.649 23
 7 -1 -7 2048.9 287.447 23
 -1 7 -7 2709.31 132.905 42
 1 -7 7 2763.33 127.785 36
 -1 -7 7 2596.66 125.179 36
 7 -1 -7 2385.05 312.252 14
 7 1 -7 2615.66 335.115 14
 -7 -7 1 2750.39 342.851 22
 -1 -7 7 2326.4 291.072 22
 -7 7 1 2591.87 127.486 34
 -1 7 -7 2552.76 124.463 34
 7 -1 7 2323.25 329.155 17
 -1 -7 7 2741.38 333.133 7
 -7 7 -1 2627.05 130.647 33
 1 7 -7 2658.07 132.409 42
 -7 1 -7 2357.23 318.301 6
 -7 1 -7 2130.11 318.351 20
 7 1 -7 2503.68 122.725 38
 7 7 1 2650.02 123.699 33
 7 7 -1 2708.77 129.216 33
 7 -1 -7 2467.8 123.893 46
 -7 7 1 2243.43 315.614 25
 -7 1 7 2787.08 129.983 32
 7 -1 -7 2507.67 128.727 49
 -7 -1 -7 2786.87 338.984 6
 -7 -1 7 2533.61 118.013 43
 -1 -7 -7 2072.17 291.261 13
 1 -7 -7 2088.41 306.759 13
 7 -7 -1 2542.23 328.909 13
 7 -7 1 2433.01 325.221 13
 -7 7 -1 2198.43 329.502 20
 -7 -1 -7 2547.61 319.561 5
 -7 -1 -7 2708.36 352.742 20
 1 -7 7 2679.93 323.57 22
 -7 1 -7 2526.48 324.623 5
 7 1 7 2654.56 122.089 30
 7 -1 7 2565.52 120.975 30
 1 7 7 2689.74 124.617 48
 1 -7 7 2747.71 119.814 30
 -1 -7 7 2687.65 116.529 30
 7 7 1 2756.4 334.006 19
 7 -7 1 2579.47 119.869 31
 7 7 -1 2348.04 310.048 19
 7 -1 7 2546.11 121.836 35
 1 7 7 2813.85 116.53 45
 1 7 7 2200.78 317.021 17
 -7 7 -1 3033.86 377.287 26
 7 -7 1 2587.7 119.185 29
 7 -7 -1 2600.33 123.081 29
 7 1 -7 2441.67 123.694 46
 7 7 1 2530.98 120.288 28
 -7 7 1 2231.14 311.486 26
 -7 -1 7 2649.85 127.047 47
 1 7 -7 2697.25 127.855 49
 7 -7 -1 2580.66 122.992 50
 -1 7 7 2493.09 115.975 27
 1 -7 7 2690.42 124.114 35
 7 1 -7 2499.56 129.256 49
 -7 7 3 2135.85 108.576 48
 -3 7 7 1998.17 105.973 48
 -7 7 -3 2262.51 328.447 25
 7 7 3 2005.72 101.333 39
 7 -3 7 1725.03 287.2 17
 7 3 -7 2279.47 331.722 25
 -7 3 -7 1655.98 259.618 6
 -3 7 -7 2279.79 307.164 6
 3 7 -7 2068.2 116.378 46
 7 3 -7 1984.73 114.314 46
 7 3 7 1956.62 97.3926 45
 -7 -3 7 1952.06 289.635 7
 -7 -3 7 1943.32 107.512 47
 3 -7 -7 2074.98 312.502 13
 3 7 -7 2540.61 333.523 26
 7 -3 7 2105.12 104.909 39
 -7 3 -7 2050.53 110.139 34
 7 -7 3 2010.04 107.147 44
 3 7 -7 1644.42 273.394 24
 3 7 -7 1749.39 280.429 25
 7 3 -7 1739.06 284.857 24
 -7 7 -3 2032.67 112.685 34
 -7 -7 3 2307.8 302.664 16
 -3 7 -7 1899 299.666 25
 7 -3 7 2045.22 105.747 41
 -7 3 7 2163.75 293.953 8
 -7 7 3 1803.62 273.059 8
 -3 -7 7 2004.44 108.957 41
 7 -7 3 2047.03 107.9 50
 -7 7 3 2138.85 118.1 40
 -3 -7 7 1908.49 102.366 35
 7 7 -3 1889.75 103.847 46
 -7 7 -3 2123.02 117.309 40
 -7 3 -7 1960.52 114.538 40
 7 7 -3 2029 107.871 39
 -7 7 -3 1938.2 311.702 24
 7 -3 -7 1782.76 282.437 15
 7 3 -7 2166.83 114.116 38
 7 3 7 1672.37 277.277 17
 -3 7 -7 1625.62 273.032 24
 7 -3 -7 1989.98 110.576 38
 7 -3 7 2051.78 111.664 35
 7 -7 -3 2035.44 105.196 50
 -7 3 7 2188.74 118.516 37
 7 3 7 2042.51 106.621 39
 -7 3 7 2048.15 107.179 47
 -3 7 -7 1588.97 272.107 23
 3 7 -7 1881.11 289.532 23
 7 3 -7 1995.01 306.182 23
 3 -7 7 2058.89 109.081 36
 -3 -7 7 2000.32 111.585 36
 3 -7 7 2069.83 107.281 41
 7 3 -7 1663.83 271.984 14
 3 -7 7 2192.05 114.063 35
 7 -7 3 1801.37 263.57 22
 3 -7 7 2039.48 293.979 22
 -3 7 -7 2077.06 113.855 42
 -3 7 -7 2013.82 115.219 34
 -3 -7 7 1526.41 255.084 7
 -7 7 -3 2054.77 114.862 33
 7 -3 -7 2112.79 118.339 49
 -7 -3 7 1891.84 107.064 43
 7 7 -3 1906.2 277.768 21
 7 7 -3 2036.89 113.022 33
 7 3 -7 1906.57 112.64 49
 -7 3 7 2115.03 115.419 32
 -7 -3 -7 1540.36 260.021 6
 -7 -7 -3 2002.1 274.629 16
 -3 7 -7 2150.76 305.283 26
 3 7 -7 2007.43 113.231 42
 7 -7 -3 2100.78 296.798 13
 7 -7 3 2073.44 109.433 31
 -7 -3 -7 1908.99 276.662 5
 3 -7 7 1953.27 294.306 13
 -7 7 -3 1647.08 285.8 20
 7 7 3 2076.27 102.413 45
 -7 3 -7 2374.07 336.217 20
 -7 3 -7 1501.71 255.725 5
 7 -3 7 1977.73 107.285 30
 -7 7 -3 2100.91 285.07 5
 7 -7 3 1960.87 101.445 30
 -3 7 -7 2029.46 284.859 5
 3 -7 7 1936.97 104.125 30
 7 7 -3 2131.33 115.155 38
 -3 7 7 1987.24 109.193 27
 7 -7 3 2120.34 306.984 13
 -3 -7 7 2149.61 109.42 43
 -7 -7 3 2098.44 113.521 43
 7 7 3 2221.65 295.152 19
 7 -7 -3 1997.4 107.813 29
 7 7 -3 1886.87 276.744 19
 3 7 7 2408.42 326.146 17
 7 7 3 1881.7 105.682 28
 7 3 7 1999.55 103.252 28
 3 7 -7 2461.14 318.547 21
 -7 3 7 1991.8 106.902 27
 3 7 -7 1933.29 112.003 49
 7 7 -3 2112.88 110.802 49
 3 7 7 2062.7 108.647 48
 3 7 7 1962.88 102.302 45
 -7 7 -3 2224.33 334.014 26
 5 7 -7 1312.24 94.3891 46
 5 7 7 1317.26 84.1165 45
 7 7 5 1342.76 84.7467 45
 7 5 7 1086.47 74.9009 45
 7 -7 5 1121.38 79.1028 44
 7 -5 7 1239.33 85.5594 30
 7 -7 5 1306.72 86.3356 35
 -7 7 -5 1206.41 89.3262 40
 -7 -7 5 1092.25 83.5269 43
 -7 -7 5 1254.24 85.4573 41
 7 7 -5 1252.08 87.6397 46
 -7 7 5 1324.07 94.7031 40
 -5 7 7 1209.53 83.3329 37
 -7 5 -7 1163.13 88.0499 40
 5 7 -7 1163.15 89.5049 49
 7 7 -5 1483.79 95.1193 38
 7 5 -7 1303.19 87.3355 38
 -7 5 7 1220.26 90.1564 37
 7 -5 -7 1131.59 84.8419 38
 -7 7 5 1259.92 86.3724 37
 -5 -7 7 1177.35 86.194 36
 -7 -5 7 1238.05 84.6689 36
 -7 -7 5 1217.56 88.4196 36
 7 -5 7 1247.21 87.5838 35
 -7 7 -5 1227.94 88.7105 34
 -5 7 -7 1245.46 91.6607 34
 -7 5 -7 1259.5 89.0303 34
 -5 7 7 1198.72 87.2123 27
 -7 -5 7 1185.48 86.9523 43
 7 7 -5 1291.77 88.3908 33
 -7 5 7 1353.55 91.8634 32
 -7 7 5 1327.52 88.0112 32
 5 7 7 1320.86 84.8365 48
 -5 -7 7 1176.71 84.5396 43
 -7 5 7 1285.28 89.3133 27
 7 5 7 1275.31 82.2965 39
 7 -7 5 1216.01 84.2906 31
 5 -7 7 1287.25 80.6061 31
 7 7 -5 1192.09 87.3569 49
 7 -7 5 1221.34 83.4312 30
 5 -7 7 1232.21 85.476 30
 5 -7 7 1111.36 83.6612 35
 -5 7 7 1175.62 79.1469 48
 7 -7 -5 1234.84 83.5178 29
 7 5 -7 1150.64 88.0798 46
 -5 -7 7 1226.12 84.2413 41
 5 7 7 1194.36 79.7732 28
 7 7 5 1233.87 84.7253 28
 7 5 7 1277.65 83.24 28
 7 -5 7 1195.95 80.0953 31
 7 5 -7 1302.75 93.8547 49
 7 7 -7 726.005 68.7003 46
 7 7 7 579.935 54.2432 45
 -7 -7 7 445.47 54.0625 43
 -7 -7 7 511.132 52.6076 41
 -7 7 -7 596.01 60.5022 40
 7 7 -7 541.774 55.8352 38
 7 -7 -7 578.784 62.405 38
 -7 7 7 496.959 55.566 37
 -7 -7 7 526.302 56.564 36
 7 -7 7 564.27 58.1557 35
 -7 7 -7 596.26 61.6586 34
 7 -7 7 560.481 54.4262 31
 7 -7 7 423.819 52.1752 30
 7 7 7 437.722 49.6418 28
 -7 7 7 513.4 57.914 27
 7 7 -7 641.534 65.0023 49
 0 0 -8 38750.2 1231.96 15
 -8 0 0 38747.8 1141.34 5
 -8 0 0 37775.1 1226.63 16
 0 -8 0 39711.5 1287.89 7
 -8 0 0 34343.5 1238.98 25
 0 0 -8 39929.8 1273.59 14
 8 0 0 36944 1215.1 23
 0 -8 0 39322.4 1229.77 22
 0 8 0 38363.8 1249.56 21
 8 0 0 35931.6 1238.8 15
 0 0 -8 38297.8 1277.86 20
 0 8 0 37335.5 1216.82 19
 8 0 0 39294.1 1236.27 19
 -8 0 0 36338.6 1275.18 26
 0 0 8 38365 1277.73 18
 -8 -2 0 30220.7 1107.17 26
 -8 2 0 32182.1 1200.33 26
 0 2 -8 32821.6 1111.11 26
 -8 -2 0 32927.4 1145.89 16
 0 -8 -2 34078.2 1200.79 7
 -8 2 0 29904.5 1181.52 25
 -8 0 -2 33498 1097.73 16
 -8 0 2 33570 1164.55 16
 -8 2 0 32544 1133.11 16
 -8 -2 0 33186.6 1068.11 5
 -8 0 -2 31550 1143.48 25
 0 -2 -8 34040.2 1176.69 15
 0 2 -8 33755.2 1128.78 25
 0 2 -8 32449.6 1065.33 15
 2 0 -8 32539.7 1132.13 15
 8 0 -2 31361.9 1149.65 15
 8 0 2 30185.8 1096.58 17
 -8 0 -2 32273.9 1098.93 5
 0 2 -8 33245.8 1129.99 24
 2 -8 0 33588.1 1173.09 7
 -2 -8 0 32585.9 1151.82 7
 8 0 -2 30649.6 1137.28 24
 8 2 0 30275 1100.64 15
 0 -8 2 33960.1 1181.56 7
 0 2 -8 32345.4 1108.16 23
 0 -2 -8 34595.3 1178.26 14
 2 0 -8 34123.7 1184.82 14
 8 2 0 31348.3 1075.76 23
 -2 -8 0 33451.3 1163.74 22
 8 0 -2 31850.2 1144.76 23
 8 0 2 31167.3 1077.9 23
 8 -2 0 31329.6 1136.33 23
 0 -8 2 33756.6 1167.35 22
 8 0 -2 30896.9 1117.7 14
 2 -8 0 33964.5 1104.03 22
 0 -8 -2 32406.7 1068.75 22
 0 2 -8 34545.1 1150.95 14
 -8 0 2 30049.8 1178.72 26
 -8 0 -2 30699.5 1116.63 26
 0 -2 8 31464.6 1076.42 7
 0 8 2 32018.7 1138.94 21
 0 -8 -2 33545.1 1116.33 13
 -2 8 0 31955.6 1162.24 21
 0 8 -2 32466.6 1147.03 21
 2 8 0 32686.6 1132.64 21
 2 -8 0 31975.5 1141.59 13
 -8 0 -2 33146.1 1062.91 6
 -8 2 0 31748.6 1176.91 20
 -8 0 -2 33973.6 1174.51 20
 0 2 -8 32635.5 1139 20
 -2 0 -8 34599.9 1227.61 20
 2 0 8 32942.4 1099.22 17
 0 8 2 31625.6 1130.61 19
 8 2 0 30667.4 1071.8 24
 0 8 -2 32171.9 1086.8 19
 -2 0 -8 31510.1 1086.63 6
 2 8 0 33838 1151.07 19
 8 2 0 30821.5 1098.12 19
 8 -2 0 29215.1 1125.54 15
 8 0 2 31034.4 1056.78 19
 0 2 -8 33186.1 1111.96 6
 0 -2 8 34108.9 1185.36 18
 -2 0 8 33669.7 1197.84 18
 2 0 8 33867.9 1157.86 18
 0 2 8 30452.3 1150.3 18
 -2 0 -8 32510.1 1141.32 14
 2 8 2 30815.4 1087.95 17
 -2 -8 -2 29555.7 1087.79 7
 -8 -2 2 26148.2 1076.52 26
 2 -8 2 28432.6 1051.21 7
 2 -8 2 28013.9 1061.91 13
 2 2 -8 31687.9 1100.58 26
 2 2 -8 29007.3 1078.65 14
 -8 2 2 27108.1 1055.33 16
 -8 2 -2 27967.1 998.624 16
 -2 8 -2 27319.7 1021.71 25
 2 2 -8 32110.4 1109.16 25
 -8 -2 -2 28473.5 1022.66 16
 -8 2 2 30252.4 1102.9 8
 2 -2 -8 29825 1106.48 15
 -2 8 -2 27848.4 1032.73 24
 2 2 -8 29890.9 1090.83 24
 8 -2 -2 26418.1 1067.66 15
 8 2 -2 25911.4 1010.35 15
 8 2 -2 28034.7 1057.28 24
 -8 2 -2 29550.8 1036.43 5
 -2 8 -2 25944.8 998.936 23
 -2 2 -8 27336.3 1011.9 23
 -2 -2 -8 28956.2 1085.83 14
 -2 -8 2 28585.5 1092.97 7
 -2 2 -8 27892.9 1021.79 14
 2 2 -8 29137.2 1073.45 23
 2 2 8 28967.9 1065 17
 8 -2 -2 25504.8 1036.08 23
 2 -2 -8 27730.6 1064.5 14
 8 -2 2 27122.2 1040.32 23
 2 -8 2 26893.1 1035.66 22
 8 2 -2 25755.5 1044.53 14
 -2 -8 2 28721.1 1090.66 22
 -2 -8 -2 28379.1 1056.13 22
 -2 -2 8 29284.7 1089.84 7
 -2 8 2 27318.1 1083.46 21
 2 -8 -2 26607.9 1052.97 13
 -2 8 -2 29218.3 1082.52 21
 2 8 2 27703.6 1018.52 21
 2 8 -2 28477.7 1076.2 21
 -8 2 2 28505.7 1077.2 20
 -8 2 2 25221.6 1091.04 25
 8 -2 -2 26312.1 986.048 14
 -8 2 -2 28707.4 1136.47 20
 -2 8 -2 26484.7 992.148 26
 -8 2 -2 26274.8 1083.53 26
 -8 2 -2 26980.1 1106.15 25
 -2 2 -8 28984.8 1112.49 20
 8 2 -2 27074.9 1033.67 23
 -2 -2 -8 28383.2 985.281 6
 -2 -2 -8 28266.5 1119.63 20
 8 -2 2 25202.5 1032.24 15
 2 8 2 28948.8 1066.99 19
 2 8 -2 29383.2 1043.92 19
 -2 2 -8 26874.2 1033 6
 8 2 2 27166.5 990.922 19
 8 2 -2 27939.4 1059.1 19
 -2 -2 8 29081.9 1117.73 18
 2 -2 8 27909 1033.63 18
 -2 2 8 26784.3 1074.02 18
 8 -2 2 25754.1 1040.38 17
 -8 2 2 25633.3 1105.1 26
 -8 -2 -2 28761.3 1037.23 5
 -8 -2 2 29200 1080.2 16
 0 8 -4 21091.8 919.714 24
 0 4 8 21589.3 927.385 17
 0 8 4 23680.5 1003.84 17
 0 8 -4 20637 900.943 26
 -8 -4 0 21339 925.344 16
 -8 -4 0 21226.6 880.082 5
 -4 -8 0 22265.6 960.025 16
 -8 0 4 21539.6 945.974 8
 -8 4 0 21964.3 889.758 8
 -8 4 0 21574.9 939.353 16
 0 4 -8 21790.4 952.797 25
 8 0 4 21185.9 961.381 17
 -8 4 0 20339.5 984.366 26
 4 0 -8 20646.5 887.297 25
 0 -4 -8 19633.6 905.506 15
 4 0 -8 20519.7 882.932 24
 -8 0 4 19434.2 965.058 26
 0 4 -8 20804.9 942.709 24
 -8 0 -4 20426.4 904.562 5
 4 -8 0 22765.3 932.324 7
 8 0 -4 20291.1 932.359 15
 4 0 -8 21483.9 930.181 15
 8 0 -4 20329.6 938.568 24
 8 -4 0 20045.4 911.261 15
 0 8 -4 19857.3 901.092 23
 -4 0 -8 21576 940.139 14
 0 8 -4 21730.7 939.073 25
 0 -4 -8 21468 913.806 14
 4 0 -8 21985.1 913.971 23
 0 -8 4 21672.6 941.329 7
 4 0 -8 20426.8 939.822 14
 8 -4 0 19716.7 913.824 23
 4 0 8 20963.4 950.337 17
 8 0 -4 20983.9 939.921 14
 -8 0 4 20782.9 917.293 16
 0 -8 4 22332.1 967.595 22
 0 -4 8 21291.4 891.022 7
 -4 -8 0 21568 958.039 22
 0 -8 -4 21998 938.052 13
 0 8 4 21652.5 908.171 21
 -4 8 0 21359.9 952.966 21
 0 8 -4 21060.6 917.092 21
 4 8 0 22206.5 919.593 21
 4 -8 0 20823.8 950.321 13
 -8 4 0 20684.6 986.701 20
 -8 0 -4 21401.1 907.713 6
 -8 0 -4 21698 970.848 20
 -4 0 -8 22684.5 1026.36 20
 -4 0 -8 21238.4 929.645 6
 0 8 4 20380.8 899.599 19
 -4 -8 0 20850.3 897.702 7
 4 8 0 21654.8 945.035 19
 8 4 0 20658.3 906.765 19
 0 4 -8 20838.4 949.638 23
 8 0 -4 21093 919.285 19
 0 -4 8 21745 941.789 18
 -4 0 8 23543.8 994.276 18
 0 8 -4 21049.9 914.598 6
 0 4 -8 21916.3 939.847 6
 0 4 -8 22888.2 970.11 26
 8 0 -4 20781.4 941.912 23
 -8 4 0 19905.8 985.524 25
 -2 4 8 19402.9 435.353 27
 -8 4 -2 18570.1 949.184 26
 -2 8 4 18791.1 425.195 48
 2 4 -8 19371.6 920.315 25
 8 2 4 19342.9 426.937 44
 2 8 -4 17564.5 824.938 26
 -8 -2 4 16480.2 890.568 26
 2 4 -8 17976.7 892.113 23
 -4 -8 -2 19457.6 898.651 16
 2 8 -4 19573.5 443.544 46
 2 4 -8 18446.7 432.558 46
 2 8 4 18963.2 903.584 17
 2 -8 -4 19385 926.061 13
 4 8 2 19935.5 423.021 45
 -8 -4 -2 18261.9 836.207 16
 -8 -4 2 19584.8 893.965 16
 2 4 8 18839.9 426.532 48
 2 4 8 19648.2 420.657 45
 4 2 8 19350.1 418.101 45
 -2 8 -4 18381.7 871.886 26
 -8 -2 4 19311.4 877.722 16
 -8 -4 -2 18046.2 846.391 5
 -8 4 2 16449.6 898.637 25
 -8 4 -2 17400.3 928.803 25
 4 2 8 19768.6 422.178 39
 -4 8 -2 17737.5 872.382 25
 -8 2 4 19458.8 909.42 8
 2 4 -8 18470.6 844.234 6
 2 8 4 18832.2 412.613 45
 4 -2 8 20272.3 434.271 43
 -8 4 2 18293.6 889.838 16
 -8 4 2 18585.6 868.565 8
 2 8 -4 17844.4 833.547 25
 4 2 -8 18781.2 888.356 25
 -8 -2 -4 18652.7 870.812 5
 -4 8 -2 19430.5 437.798 42
 8 -2 -4 17075 859.864 23
 2 -4 -8 18262.8 880.582 15
 -2 4 -8 19242.2 437.592 42
 2 4 -8 18934.4 441.325 42
 -8 2 4 17778.7 864.304 16
 -2 4 -8 19081 904.566 25
 8 4 2 19373.4 428.947 44
 -4 8 -2 17263.1 862.806 24
 -4 2 8 17987.2 812.323 8
 4 -2 -8 19313 919.128 15
 4 -2 8 19869.5 434.752 41
 -2 8 -4 17333.6 863.768 24
 -2 -4 8 18941.3 422.547 41
 2 8 -4 18523 854.421 24
 4 -2 8 16471.2 839.534 17
 -2 -8 4 18714.5 425.359 41
 -2 -8 -4 19396.7 886.587 7
 2 4 -8 17588.4 888.844 24
 -2 -4 8 19275.2 431.241 36
 8 -4 2 19492.1 430.475 44
 8 4 -2 19232.8 423.623 39
 -8 -2 4 18340.7 430.187 47
 -4 2 8 18585.2 428.424 27
 4 2 -8 19687.8 901.681 24
 8 4 -2 18155.2 829.298 23
 -8 4 2 18521.4 434.637 40
 8 2 -4 17045.1 823.08 15
 8 4 -2 18331.7 832.801 24
 8 2 -4 17883.1 883.096 24
 8 -2 -4 16916.1 858.536 24
 2 4 8 18077 888.604 17
 -4 -8 2 16959 847.696 7
 8 -2 -4 16990.8 880.177 15
 -2 8 -4 17042.3 861.01 23
 -8 2 -4 18073.4 861.363 5
 8 2 4 19669.9 428.478 39
 -2 4 -8 18741 898.632 23
 4 -2 8 18798.6 428.874 27
 2 8 -4 17730.7 842.922 23
 -2 -4 -8 19501.4 897.52 14
 -4 2 -8 18762.3 840.631 14
 4 8 -2 19824.4 440.869 38
 4 2 8 17883.1 887.113 17
 8 4 -2 19460.6 433.368 38
 4 2 -8 17780.8 867.078 23
 8 2 -4 19358.9 436.928 38
 2 -8 4 17530.3 818.127 7
 -2 4 -8 17019.4 854.966 24
 8 -2 -4 19009.7 432.681 38
 2 -4 8 19555.6 430.898 41
 8 2 -4 17687.4 875.311 23
 2 -4 -8 18198.1 839.128 14
 -2 -8 4 19299.1 919.61 7
 -2 -8 4 18507.3 884.85 22
 -4 2 8 19968.3 441.178 37
 -8 4 -2 19025.1 840 5
 8 -4 -2 16736 844.776 23
 4 -2 -8 18775.3 887.754 14
 2 4 -8 19225.6 854.681 14
 4 2 -8 18132.1 880.068 14
 -8 4 -2 18450.7 432.31 37
 8 -4 2 17742.9 877.865 23
 4 8 -2 19580.7 437.16 49
 4 -2 8 20068.2 441.642 36
 2 -4 8 18351.7 824.911 22
 2 -4 8 19631.2 438.464 36
 -4 -8 2 17575.3 868.478 22
 -8 4 -2 18643.5 443.098 40
 4 -8 2 18946.7 858.888 22
 -2 -8 4 18843.9 425.32 36
 8 -2 -4 17237.1 824.355 14
 2 -8 4 17126.7 853.396 22
 8 2 -4 17560.1 879.571 14
 -8 2 -4 17944.9 898.9 25
 2 -4 8 19820.5 439.126 27
 -4 2 -8 17345.4 907.882 20
 -2 -4 8 17540 862.067 7
 2 -8 4 18583.8 424.569 35
 8 4 -2 16848.8 809.346 25
 -4 -8 -2 17793.9 880.431 22
 -8 2 4 19177.9 441.893 37
 8 -2 4 20692.5 437.743 44
 8 -2 4 19211.9 429.017 35
 -4 8 2 20199.1 452.131 34
 -2 8 4 18018.2 882.643 21
 -4 8 2 17996.4 903.689 21
 -4 8 -2 18941.1 441.573 34
 -4 -2 8 18319.6 900.897 7
 -4 8 -2 18494 860.506 21
 -2 8 -4 19146 436.894 34
 -2 4 -8 19369.3 443.63 34
 -2 8 -4 18899.1 848.053 21
 -4 -8 2 20653.8 912.311 16
 4 -8 -2 17407.1 885.76 13
 8 4 -2 19549.9 431.2 50
 2 8 -4 18973.2 893.291 21
 4 8 -2 18316.9 872.385 21
 -4 8 -2 18496.8 437.99 33
 -2 8 -4 18832.7 432.6 33
 2 8 -4 19499.3 437.278 42
 -8 4 2 18572 438.138 37
 -2 8 -4 18968.7 904.279 25
 2 8 -4 19413.5 435.127 33
 -8 -2 -4 17574.1 855.545 6
 4 -8 2 18296.6 900.269 13
 4 8 -2 19829.1 440.073 33
 2 4 -8 20119.9 930.37 26
 -2 4 -8 18686.7 877.963 26
 8 -4 2 19284.4 430.073 50
 2 -8 4 18394 870.235 13
 -8 4 -2 17379.1 931.442 20
 -4 8 -2 16691 816.968 5
 -8 2 4 18759.6 434.359 32
 -8 4 2 18068.2 433.066 32
 -8 2 -4 17344 913.101 20
 -2 8 -4 18950.8 439.479 42
 -8 4 -2 18564 436.169 32
 8 -4 -2 19372.1 430.297 50
 -2 8 -4 18588 875.099 5
 -8 2 4 16580.9 902.235 26
 8 2 4 18805.9 421.957 31
 4 8 -2 19991.2 442.35 46
 -4 -2 -8 17782.2 840.698 6
 8 -4 -2 17543 872.778 15
 -4 -2 -8 17886.5 915.734 20
 8 -2 4 20066.2 433.199 31
 -8 2 -4 18790.2 820.145 6
 8 -4 2 18673.9 425.889 31
 -2 -4 -8 17573.1 891.847 20
 4 -8 2 19184.6 425.678 31
 -8 4 2 16074.6 879.102 26
 8 -2 4 17056.5 887.026 17
 2 8 4 18565.8 850.388 19
 8 -2 4 19327.7 425.462 30
 4 8 2 19515.9 892.985 19
 4 8 -2 19871.8 883.991 19
 -4 2 -8 18695.7 884.353 6
 2 -8 4 19321.2 426.699 30
 8 2 4 18029.6 867.506 17
 8 4 2 18257.2 840.501 19
 8 4 2 19680.5 426.476 29
 8 4 -2 17421.6 847.378 19
 8 4 -2 19695.7 431.119 29
 8 4 2 19696.9 427.297 50
 -4 8 -2 18807.8 895.462 26
 8 2 -4 18640.2 861.933 19
 8 -2 -4 19349.8 427.984 29
 8 -4 -2 18806.2 428.175 29
 -8 2 -4 19048.4 441.148 40
 -2 4 -8 18203.9 877.637 6
 -4 -2 8 19634.8 435.814 43
 -2 -4 8 20362.7 945.032 18
 -4 -2 8 19812.1 930.699 18
 -4 8 -2 18948.2 428.924 28
 -4 8 2 18643.6 423.494 28
 2 8 4 19657.1 428.426 28
 -4 2 8 18725.4 879.029 18
 4 8 2 19186.2 429.358 28
 -4 -2 8 19240.6 429.06 47
 8 4 2 19443.7 426.43 39
 -8 -4 2 18992.9 431.599 47
 8 4 2 19445.2 430.179 28
 -8 2 -4 17633.3 881.139 26
 4 2 8 19116.9 428.172 48
 -4 8 2 19401 431.752 48
 8 2 -4 18611.7 432.007 49
 -2 8 -4 18739.2 846.418 6
 2 8 -4 19086 444.014 49
 -2 -4 8 19657.7 434.669 43
 -4 2 8 19610.9 431.23 47
 4 2 -8 19281.5 437.868 49
 4 2 -8 18630.6 438.14 46
 4 8 -4 12375.3 333.367 49
 4 4 8 12303.4 756.848 17
 -8 4 4 12190.8 733.216 16
 4 8 -4 12703.5 334.019 46
 4 4 -8 12936.7 339.288 46
 -4 8 -4 11235.2 723.254 26
 -8 4 -4 11873.5 768.982 25
 4 8 4 12284.3 310.977 45
 -4 4 8 13177.6 317.983 47
 4 4 8 12385.9 311.919 45
 4 4 -8 12848.8 762.129 26
 -8 -4 4 12097 706.06 16
 -4 8 4 13171 326.848 48
 4 -8 4 12339.1 312.615 44
 -4 8 -4 11316.7 727.096 25
 -8 -4 -4 12305.5 716.504 5
 -4 4 -8 12610.3 740.429 25
 -4 -8 -4 13030.4 714.065 16
 -4 -4 8 12713.3 328.38 43
 -8 4 4 12337.9 741.916 8
 4 4 -8 12140.7 743.575 25
 -8 -4 4 12354.2 327.938 43
 8 4 -4 11480.4 701.798 25
 -8 4 -4 11853.7 762.605 24
 4 4 -8 12133.1 325.316 42
 -4 8 -4 10591.8 705.93 24
 4 -4 -8 12570.9 746.427 15
 -4 4 -8 10934.7 690.875 24
 4 -4 8 12680.1 323.492 41
 -4 -8 4 12062.7 319.058 41
 4 4 -8 11796.4 742.503 24
 -4 8 4 12051.1 321.349 40
 -8 4 4 12513.8 326.668 40
 8 4 -4 11078.7 687.975 24
 -8 4 -4 12244.3 334.398 40
 8 -4 4 12977.5 324.676 44
 8 -4 -4 11407.1 700.114 24
 -4 4 8 11953.5 323.025 27
 -4 4 -8 11583 710.869 23
 8 4 4 12690.9 318.799 39
 4 8 -4 13231.9 328.746 38
 4 4 -8 11769.5 734.066 23
 8 4 -4 13014.3 332.625 38
 8 -4 -4 11490.9 725.615 15
 8 4 -4 11846 710.207 23
 8 -4 -4 12335.6 322.201 38
 -4 4 8 13334 335.766 37
 8 -4 -4 11158.4 687.937 23
 -8 4 4 12556.2 334.184 37
 -4 -8 4 12109.2 739.281 7
 -8 4 -4 12390.1 716.996 5
 -8 4 -4 12532.9 324.734 37
 4 4 -8 12494.3 714.607 14
 4 -4 8 13649.8 746.505 22
 4 -4 8 12630.6 328.442 36
 4 -8 4 11416.7 696.48 22
 -4 -4 8 12474.9 320.973 36
 -4 -8 4 12313.6 322.093 36
 8 4 -4 11605.7 713.41 14
 8 -4 4 12288.4 317.653 35
 -4 -8 4 12232.4 718.945 22
 -4 4 -8 12143.5 682.32 5
 4 -4 8 12552.1 319.043 35
 8 4 -4 12780.5 317.655 39
 4 -8 4 12819.4 320.587 35
 -8 -4 4 11840.2 316.18 47
 -4 -4 8 11809 731.159 7
 -4 -8 -4 10601.2 673.777 22
 8 4 -4 12358.4 323.733 49
 -4 8 -4 12164.6 331.575 34
 4 -8 -4 11866.9 753.213 13
 -4 4 -8 12383 333.962 34
 -8 4 -4 11744.9 756.251 26
 -4 8 -4 12222.3 326.212 33
 4 8 -4 11991.6 727.228 21
 -4 4 -8 12931 731.983 26
 4 4 -8 12120.6 709.339 21
 4 8 -4 12509.9 327.749 33
 -4 8 -4 12091.5 716.235 5
 4 -8 4 11713.6 728.468 13
 4 4 8 11903.3 316.794 48
 -8 4 4 12674.8 331.384 32
 -8 4 -4 11972.6 779.64 20
 8 -4 4 11120.6 668.979 13
 -4 -4 -8 12759.1 694.306 6
 -8 4 -4 12878 333.201 32
 -4 4 -8 11723 741.813 20
 8 -4 4 12842.6 315.677 50
 -4 -4 -8 12451 753.469 20
 8 -4 4 12009.8 318.47 31
 4 -8 4 12597.5 319.175 31
 8 -4 4 12838.9 317.087 30
 4 8 4 12647.5 701.568 19
 4 -4 8 12813.9 314.705 30
 4 -8 4 12051.3 313.314 30
 8 4 -4 12506.2 706.673 19
 8 4 -4 12590.8 312.87 29
 -4 4 -8 12926.9 750.932 6
 8 -4 -4 12336.5 318.128 29
 4 4 -8 12942 335.584 49
 -4 -4 8 12283.2 756.854 18
 -4 8 -4 12409.6 316.419 28
 -4 8 -4 12341.4 323.587 42
 4 8 4 12798.3 323.027 28
 8 -4 4 12472.5 764.134 17
 8 4 4 12400 320.345 28
 4 8 4 11992.7 717.458 17
 8 4 4 10927.2 667.014 17
 4 -4 8 12275.3 325.074 27
 -8 4 4 10726.9 720.327 26
 0 -8 6 10564.2 286.672 41
 6 -8 0 10701.6 292.386 50
 0 8 -6 10941.5 292.138 46
 0 6 -8 10262.6 692.536 24
 8 0 -6 9970.81 284.038 46
 6 0 -8 10398.7 298.205 46
 0 6 -8 9608.45 662.329 26
 0 8 -6 10627.9 699.567 25
 8 -6 0 10494.9 283.49 44
 6 -8 0 10589 285.092 44
 -8 0 6 10816.5 296.781 47
 -8 0 6 10756.7 673.467 8
 0 6 -8 10857 696.168 6
 0 8 -6 11199.5 309.371 42
 6 0 8 10792.7 294.671 41
 0 8 -6 9593.3 663.979 23
 0 -6 8 10902.8 293.327 41
 0 8 6 10362.4 692.464 17
 6 0 -8 10493.2 675.636 15
 8 0 -6 10114.6 670.353 15
 -6 8 0 10558.7 296.832 40
 -8 6 0 10198.7 298.474 40
 6 0 -8 10312.4 656.26 24
 -8 0 -6 10580.5 677.169 5
 8 0 -6 10545.8 687.863 24
 -8 0 -6 10480.1 296.009 40
 6 8 0 10731.5 278.206 39
 8 6 0 10713.9 285.779 39
 0 6 8 10911 693.34 17
 6 0 -8 10418.5 660.667 25
 6 0 8 11587.7 295.878 39
 0 6 -8 10237 694.051 23
 8 0 6 9965.99 688.136 17
 6 8 0 11551.2 304.652 38
 8 6 0 11223.4 293.832 38
 8 0 6 10910.4 287.392 39
 6 0 -8 11123 292.478 38
 8 0 -6 10696 297.261 38
 0 8 -6 10828.5 702.666 24
 8 0 -6 10446.3 689.682 23
 0 6 -8 11084.8 310.233 42
 -6 0 8 11376.7 295.77 37
 0 -6 8 10761.4 284.46 35
 -8 0 6 10705.6 293.598 37
 0 -8 6 10584.4 668.553 7
 8 -6 0 9256 636.433 23
 6 0 -8 10638.6 693.382 14
 -6 0 8 11535.8 305.197 47
 0 -6 8 11019.5 300.603 36
 8 0 -6 10126.6 676.925 14
 0 -8 6 10604.4 289.852 36
 0 -8 6 10637.6 673.473 22
 0 -6 8 9829.5 623.461 7
 -8 -6 0 10465.6 670.924 16
 8 0 6 10465.4 290.703 35
 6 0 8 10490.8 282.553 35
 0 -8 6 10906.9 294.119 35
 -6 -8 0 10284.4 686.676 22
 0 -8 -6 10018.5 668.993 13
 -6 8 0 10639.1 302.338 34
 0 -6 -8 11735.5 688.938 15
 0 6 -8 10649.5 293.184 34
 0 8 -6 9510.36 612.904 21
 -6 8 0 10863.5 304.555 33
 6 -8 0 9610.18 671.036 13
 8 -6 0 9111.71 622.415 13
 -8 6 0 10189.2 715.596 26
 6 8 0 11218.7 300.436 33
 6 0 8 11596 743.801 17
 -8 6 0 10783.9 736.101 20
 -8 0 6 10725.4 291.619 32
 -8 6 0 10679.1 291.477 32
 -8 0 -6 10494.1 705.779 20
 -6 0 -8 10483.8 724.038 20
 -8 0 -6 9601.19 639.723 6
 8 0 6 10717.9 280.489 31
 8 -6 0 10978.9 285.812 31
 -6 0 -8 11050.3 701.306 6
 6 -8 0 10988.4 284.357 31
 8 0 6 11242.3 294.577 30
 6 0 8 10737 284.141 30
 -6 0 -8 10879.6 660.645 5
 6 8 0 10051.9 663.665 19
 0 -8 6 11626.7 294.012 30
 8 6 0 10169.4 660.38 19
 8 6 0 11428 298.679 29
 -6 -8 0 10545.8 678.747 16
 8 -6 0 10659.1 288.405 29
 0 8 -6 10511.5 678.438 6
 0 -6 8 10300.6 659.178 18
 -6 8 0 10806.9 294.58 28
 8 0 -6 10787 304.536 49
 6 8 0 10903.8 287.129 28
 8 6 0 10860.4 284.369 28
 8 -6 0 10877.8 294.641 50
 6 0 -8 10691.7 303.669 49
 8 0 6 10925 282.385 44
 -8 6 0 10077.3 717.919 25
 0 6 -8 10519.4 706.141 25
 6 0 -8 10359.4 658.213 23
 0 8 6 10351.5 286.416 48
 0 8 -6 12072.1 728.795 26
 0 6 8 10733.7 283.771 27
 0 6 8 10594.1 288.507 48
 -2 8 6 9322.36 265.959 48
 -2 8 6 8919.05 257.173 27
 6 8 -2 9951.48 279.899 38
 -6 2 8 9808.04 273.742 47
 2 8 -6 9697.72 647.221 6
 8 6 2 9641.55 263.598 39
 -8 2 6 9308.9 267.986 47
 -8 -6 2 9457.19 640.552 16
 6 8 -2 9688.06 269.408 46
 2 8 -6 9587.7 278.349 46
 2 6 -8 9543.45 276.235 46
 -6 -8 -2 8539.11 611.579 16
 8 2 -6 9000.68 266.616 46
 -6 -8 2 9706.87 645.788 16
 8 -2 -6 8728.05 260.073 46
 6 -8 -2 9166.93 262.049 50
 8 2 6 8573.16 632.248 17
 8 6 2 9487.94 249.586 45
 -8 -6 -2 9594.44 633.545 5
 2 8 -6 9073.24 627.564 26
 2 8 6 9542.43 255.318 45
 2 6 -8 10134.6 683.229 26
 2 6 8 9670.28 259.273 45
 6 2 8 9547.78 253.782 45
 6 2 -8 9208.64 278.426 49
 -8 6 2 7504.06 607.249 25
 8 2 6 9327.44 255.718 44
 -6 8 -2 8441.91 635.434 25
 6 -8 2 9304.53 264.464 44
 6 -8 -2 9511.6 255.563 44
 8 2 6 9774.97 267.061 28
 6 -2 8 9252.51 263.776 27
 8 -6 2 8996.16 262.666 44
 -2 8 -6 7596.77 588.516 26
 2 6 8 9603.8 668.744 17
 -2 6 -8 9860.93 683.14 25
 -2 -6 8 9753.67 269.586 43
 2 8 -6 8564.51 613.518 25
 -6 -2 8 9975.11 275.177 43
 -8 -2 6 9790.71 268.646 43
 -6 -8 2 8786.74 260.597 43
 -2 -6 -8 9354.02 615.709 15
 6 2 -8 9080.14 642.81 25
 -8 6 2 9301.03 616.515 8
 8 2 -6 8992.7 648.576 25
 -2 6 -8 9437.48 278.753 42
 -6 2 8 8694.37 599.968 8
 2 6 -8 9713.86 286.281 42
 -6 8 -2 8158.58 624.989 24
 2 -6 -8 9379.77 628.22 15
 6 -2 8 9610.79 271.096 41
 -2 8 -6 8732.11 638.721 24
 -2 6 -8 9453.67 666.327 24
 2 -6 8 9216.94 266.537 41
 2 -8 6 9460.61 261.272 41
 -8 -2 -6 9747.47 647.016 5
 -2 -6 8 9557.38 268.401 41
 2 8 -6 9156.23 640.354 24
 -2 -8 6 9381.31 268.242 41
 2 6 -8 9062.04 658.175 24
 6 -2 -8 8576.89 627.1 15
 8 -2 -6 8535.37 637.618 15
 -6 8 2 9541.63 278.955 40
 -8 6 2 9278.09 277.899 40
 6 2 -8 9154.7 642.378 24
 -6 8 -2 9077.98 269.805 40
 8 2 -6 8297.11 621.789 24
 -8 2 -6 9769.48 282.784 40
 8 -2 -6 8549.69 608.849 24
 -8 2 6 9038.85 610.104 16
 2 6 -8 9363.95 630.709 6
 2 6 8 9238.58 266.715 48
 8 6 -2 9734.02 268.022 39
 -6 -2 8 9675.94 273.633 47
 8 2 -6 9513.29 280.754 49
 -2 6 -8 8452.79 635.438 23
 8 2 6 9330.79 263.768 39
 8 -2 6 9734.1 259.647 39
 6 2 8 9495.99 264.519 39
 2 8 6 9068.87 260.328 48
 2 8 -6 9329.27 648.613 23
 2 6 -8 9781.11 677.302 23
 8 6 -2 9511.29 272.411 38
 -8 2 -6 9593.08 649.397 5
 6 2 -8 9322.78 651.097 23
 8 2 -6 9343.14 273.112 38
 6 -2 -8 9577.56 269.128 38
 8 -2 -6 8345.33 598.978 23
 -6 2 -8 9094.68 613.29 5
 -6 2 8 9994.82 282.677 37
 -8 2 6 9667.24 280.265 37
 -8 6 2 9192.33 267.968 37
 2 8 -6 9155.06 274.745 42
 2 8 6 9592.2 669.166 17
 8 -6 -2 8923.35 615.736 23
 -8 6 -2 8950.81 685.253 25
 -2 -8 6 9403.77 657.684 7
 6 -2 -8 9205.97 633.393 14
 8 -6 2 9335.83 268.096 50
 6 2 -8 9832.99 672.688 14
 -6 8 -2 8692.56 644.626 26
 2 -6 8 9671.93 275.538 36
 2 -8 6 9807.98 265.778 36
 2 -6 8 9122.3 607.527 22
 8 -2 -6 9040.82 618.655 14
 -2 -6 8 10002.8 279.881 36
 8 2 -6 8995.12 645.497 14
 2 -8 6 8650.13 615.565 22
 -2 -8 6 9608.81 630.528 22
 -2 -6 8 8707.15 618.555 7
 -2 8 -6 9227.38 659.915 25
 8 -2 6 9229.05 268.108 35
 6 -2 8 9634.89 268.502 35
 8 2 -6 8918.51 646.888 23
 2 -6 8 9344.84 264.593 35
 2 -8 6 9532.55 270.563 35
 2 -6 -8 8632.86 649.896 13
 -6 -8 2 8919.74 623.888 22
 6 2 8 9363.33 667.991 17
 -2 -8 6 9460.86 268.254 35
 -6 -8 -2 8614.02 632.193 22
 8 -6 -2 9636.51 268.596 50
 -6 8 2 9540.37 281.084 34
 2 -8 -6 9370.23 677.823 13
 -8 6 -2 9334.18 266.962 34
 -6 8 -2 8992.19 274.267 34
 -2 8 -6 9445.65 275.579 34
 -6 -2 8 8748.71 634.679 7
 -2 6 -8 9829.13 283.476 34
 -6 2 -8 9497.33 272.274 34
 -2 6 -8 9208.81 646.503 26
 -8 2 6 9658.99 656.744 8
 -6 8 2 9306.11 272.385 33
 6 -8 -2 8430.62 630.218 13
 -6 8 -2 9290.75 279.229 33
 2 8 -6 8554.65 605.553 21
 6 8 -2 9157.25 617.854 21
 8 -6 -2 8221.9 589.083 13
 -2 8 -6 9539.1 280.754 42
 8 -2 -6 9407.71 273.858 38
 2 8 -6 9584.2 265.338 33
 6 8 -2 10148.9 282.182 33
 6 8 -2 10085.7 265.406 39
 6 -8 2 8727.81 637.854 13
 8 -2 6 8428.98 641.916 17
 -6 8 -2 9217.23 666.1 20
 -6 8 -2 9005.55 597.384 5
 8 -2 -6 9353.96 280.833 49
 6 8 2 9327.4 258.223 45
 -8 6 -2 8648.82 672.431 20
 8 -6 2 9479.14 631.409 13
 -6 2 8 9704.31 277.553 32
 -8 2 6 9718.12 278.202 32
 -8 -2 -6 8819.72 619.19 6
 -8 6 2 9372.91 268.84 32
 6 -8 2 9336.71 266.587 50
 -8 2 -6 8845.63 670.277 20
 -8 6 -2 9488.33 268.728 32
 -8 6 2 7591.04 605.971 26
 8 -2 6 9417.85 260.372 44
 -2 -8 6 9136.76 267.77 36
 2 -8 6 9573.2 646.168 13
 -6 2 -8 8093.67 644.969 20
 -2 8 -6 9549.5 642.66 6
 -8 -6 -2 9159.21 616.518 16
 6 -2 -8 9613.29 281.735 49
 -2 8 -6 9331.73 662.524 23
 -6 -2 -8 8150.44 600.181 6
 -6 -2 -8 9437.85 673.097 20
 -2 8 -6 9303.2 625.91 5
 8 -2 6 9732.61 264.469 31
 8 -6 2 9644.35 269.107 31
 6 -8 2 9485.1 265.875 31
 2 -8 6 9680.57 259.599 31
 -8 2 -6 8764.88 601.145 6
 8 -2 6 9463.08 267.046 30
 6 -2 8 9591.6 265.217 30
 -6 2 -8 9620.63 655.346 6
 2 -6 8 9643.1 259.933 30
 6 8 2 9611.81 638.667 19
 2 -8 6 9604.78 266.966 30
 6 8 -2 9304.17 634.232 19
 -2 -8 6 9773.04 262.885 30
 8 6 2 7918.17 578.614 19
 8 6 -2 8684.87 611.233 19
 8 6 -2 9596.11 269.271 29
 2 6 -8 8804.62 641.693 25
 8 -6 2 9271.72 256.06 29
 8 -6 -2 9430.75 268.418 29
 -2 -6 8 7575.7 596.011 18
 -6 8 2 9570.77 265.724 28
 -6 -2 8 9155.04 628.465 18
 -8 6 -2 8283 658.624 26
 6 2 -8 9735.57 267.532 38
 -8 -2 6 9101.34 268.585 47
 -2 6 -8 9243.21 648.092 6
 6 8 2 9603.37 270.825 28
 -2 6 8 9816.3 265.612 48
 -8 6 -2 9449.82 281.874 40
 8 6 2 9344.77 267.074 28
 6 2 -8 9328.95 279.273 46
 -8 2 6 8190.26 634.89 26
 2 8 -6 9441.72 280.925 49
 2 6 -8 9371.2 273.323 49
 6 -2 8 8387.72 638.09 17
 -2 6 8 9414.46 269.841 27
 -6 2 8 9421.98 265.952 27
 -6 4 8 6307.77 214.159 27
 -4 6 8 6220.02 215.604 27
 -4 8 6 6500.06 210.336 48
 -8 4 6 6186.18 207.36 27
 -6 4 8 6602.4 207.412 47
 -6 -4 8 6526.16 206.517 47
 -8 -4 6 6276.52 208.392 47
 4 8 6 6248.91 202.77 48
 6 8 -4 6250.76 213.14 46
 4 8 -6 6304.01 220.84 46
 4 6 -8 6646.41 227.355 46
 8 4 -6 6062.2 211.234 46
 6 4 -8 6228.07 222.994 46
 8 6 -4 6215.63 210.169 49
 6 8 4 6329.79 202.657 45
 8 6 4 6537.29 197.367 45
 4 8 6 6295.51 202.504 45
 4 6 8 6161.66 201.136 45
 6 4 8 6322.99 199.408 45
 6 -8 4 6016.85 200.537 50
 8 -4 6 6308 203.098 44
 8 -6 4 6266.03 208.545 44
 -4 -6 8 6272.51 212.631 43
 -6 -4 8 6255.33 214.309 43
 -4 -8 6 6262.9 202.381 43
 -8 -4 6 6356.07 215.439 43
 -6 -8 4 6131.87 206.867 43
 -4 8 -6 6143.33 208.937 42
 4 6 -8 6115.69 213.332 42
 6 8 -4 6139.74 214.048 49
 6 -4 8 6429.82 210.124 41
 4 -6 8 6419.88 209.757 41
 -4 -6 8 6247.52 205.971 41
 -4 -8 6 6350.38 211.289 41
 -8 -6 4 5907.71 211.809 43
 4 8 -6 6035.96 218.866 49
 -8 4 6 6286.31 211.917 40
 -6 8 4 6323.99 219.355 40
 -8 6 4 6305.9 218.812 40
 -6 8 -4 6085.57 209.46 40
 -8 6 -4 6209.54 221.156 40
 -8 4 -6 6053.24 219.077 40
 -6 4 -8 6050.86 215.857 40
 8 6 -4 6221.54 207.687 39
 8 6 4 6542.92 205.254 39
 8 4 6 6290.38 206.151 39
 6 4 8 6243.3 199.54 39
 -6 8 4 6380.56 209.429 48
 6 8 -4 6642.92 219.389 38
 8 6 -4 6472.5 219.185 38
 8 4 -6 6539.64 219.49 38
 8 -4 -6 5857.3 209.202 38
 6 -4 -8 6048.61 206.526 38
 -4 8 6 6273.49 213.199 27
 -6 4 8 6621.91 224.616 37
 -8 4 6 6581.37 224.552 37
 -8 6 4 6140.22 212.938 37
 -8 4 -6 5887.61 204.948 37
 4 6 8 6186.35 208.002 48
 6 -4 8 6408.04 214.911 36
 4 -6 8 6407.48 212.819 36
 -4 -6 8 6310.08 214.486 36
 -6 -4 8 6337.11 205.897 36
 -4 -8 6 6004.48 210.45 36
 -8 -4 6 6060.15 203.152 36
 -6 -8 4 6200.6 214.437 36
 8 -4 6 6214.32 210.663 35
 8 -6 4 6190.63 203.907 35
 6 -4 8 6176.71 210.401 35
 6 -8 4 6387.67 206.281 35
 4 -6 8 6086.03 208.316 35
 4 -8 6 6174.74 210.924 35
 -8 6 -4 6314.66 210.416 34
 -6 8 -4 5998.82 214.95 34
 -4 8 -6 6273.14 220.522 34
 8 -6 4 6278.71 203.674 50
 -4 6 -8 6236.02 221.722 34
 -6 4 -8 6394.54 219.751 34
 -6 8 -4 5975.22 211.615 33
 4 8 -6 6504.41 209.688 33
 6 8 -4 6438.09 217.123 33
 8 6 -4 6410.83 216.947 33
 -6 4 8 6563.83 219.88 32
 -8 4 6 6290.22 216.522 32
 -8 6 4 6156.53 211.549 32
 -8 6 -4 6170.75 207.539 32
 8 4 -6 6030.05 216.456 49
 4 6 -8 6646.91 224.841 49
 8 -4 6 6494.45 207.893 31
 8 -6 4 6236.35 209.327 31
 6 -8 4 6531.05 211.654 31
 4 -8 6 6159.12 201.219 31
 8 -4 6 6563.41 212.342 30
 6 -4 8 6303.98 207.243 30
 8 -6 4 6392.53 204.372 30
 4 -6 8 6032.63 201.498 30
 6 -8 4 6282.27 204.172 30
 4 -8 6 6329.5 208.397 30
 8 6 -4 6689.7 207.005 29
 8 -6 -4 6429.05 209.93 29
 4 8 6 6579.75 206.972 28
 6 8 4 6152.7 209.09 28
 8 6 4 6483.25 213.54 28
 8 4 6 6863.14 213.848 28
 6 -8 4 6041.07 202.291 44
 6 4 -8 6090.74 219.369 49
 6 -4 -8 6032.01 215.469 49
 -6 6 8 3058.83 143.79 27
 -6 8 6 3386.05 150.419 27
 6 8 -6 3339.89 151.256 46
 8 6 -6 3380.54 147.246 46
 6 6 -8 3328.93 154.316 46
 6 8 6 3264.39 137.444 45
 8 6 6 3386.06 134.849 45
 6 6 8 3238.11 139.057 48
 6 6 8 3303.54 136.842 45
 8 -6 6 3188.33 135.991 44
 6 -8 6 3226.7 133.316 44
 -6 -6 8 3401.36 148.955 43
 -8 -6 6 3280.64 147.689 43
 6 -6 8 3334.66 137.828 41
 -6 -6 8 3157.48 134.477 41
 -8 6 6 3260.92 148.459 40
 -6 6 -8 3250.63 146.112 40
 8 6 6 3094.07 132.313 39
 6 8 -6 3219.8 141.68 38
 8 6 -6 3469.09 150.609 38
 8 -6 -6 3245.58 146.137 38
 6 -6 -8 3073.71 140.347 38
 -6 6 8 3328.36 148.986 37
 -8 6 6 3465.77 153.421 37
 6 -6 8 3183.03 139.043 36
 -6 -6 8 3325.41 145.694 36
 -6 -8 6 3410.14 150.859 36
 -8 -6 6 3347.23 147.695 36
 8 -6 6 3075.98 140.666 35
 6 -6 8 3221.43 144.182 35
 6 -8 6 3472.87 148.01 35
 -8 6 6 3261.35 146.607 27
 -6 8 -6 3113.36 147.098 34
 -8 6 -6 3301.57 144.8 34
 -6 6 -8 3348.18 152.389 34
 6 8 -6 3205.24 140.936 33
 8 6 -6 3353.27 143.087 33
 -6 8 6 3407.01 139.561 48
 -8 6 6 3342.38 147.726 32
 -6 -8 6 3220.05 143.301 41
 8 -6 6 3476.05 143.998 31
 6 -8 6 3333.4 140.048 31
 8 -6 6 3306.29 142.686 30
 6 -6 8 3089.55 138.069 30
 6 -8 6 3287.03 142.198 30
 8 -6 -6 3331.62 137.59 29
 6 -8 -6 3080.82 132.328 29
 6 8 6 3227.98 139.91 28
 8 6 6 3442.63 143.82 28
 -6 -8 6 3233.07 141.31 43
 6 8 -6 3419.05 154.136 49
 6 6 -8 3084.52 149.243 49
 8 6 -6 3337.83 151.017 49
 -8 6 -6 3089.84 148.423 40
 0 8 8 4234.5 165.041 48
 -8 0 8 4333.63 172.569 47
 8 0 -8 4064.98 168.096 46
 8 -8 0 4079.69 160.451 44
 0 8 -8 4013.67 173.584 42
 0 -8 8 4221.33 166.024 41
 -8 8 0 4133.25 172.304 40
 -8 0 -8 4325.36 173.975 40
 8 8 0 4319.17 160.678 39
 8 0 8 4231.68 163.644 39
 8 8 0 4416.35 168.367 38
 8 0 -8 4213.69 167.787 38
 -8 0 8 4564.5 170.339 37
 0 -8 8 4245.29 170.127 36
 0 -8 8 4511.09 169.123 35
 -8 8 0 4132.51 169.029 34
 8 8 0 4273.84 169.912 33
 8 -8 0 3883.81 161.66 50
 -8 0 8 4182.72 165.022 32
 8 -8 0 4178.68 158.721 31
 8 0 8 4315.37 165.024 30
 0 -8 8 4404 159.151 30
 8 -8 0 4239.72 165.143 29
 8 8 0 4387.35 161.7 28
 8 0 -8 3855.02 169.038 49
 -2 8 8 3481.91 146.711 27
 2 8 8 3445.83 148.532 48
 -8 8 2 3466.15 146.864 48
 -8 2 8 3916.79 158.858 47
 -8 -2 8 3765.17 158 47
 2 8 -8 3710.25 156.228 46
 8 2 -8 3649.91 159.686 46
 8 -2 -8 3530.78 152.865 46
 2 8 8 3667.04 142.152 45
 8 -8 2 3455.55 149.026 44
 -8 -2 8 3827.88 152.716 43
 -8 -8 2 3417.09 151.36 43
 -2 8 -8 3625.89 159.647 42
 2 8 -8 3696.51 161.862 42
 2 -8 8 3750.57 152.637 41
 -2 -8 8 3927.86 158.472 41
 8 2 -8 3573.25 160.221 49
 -8 8 2 3802.01 163.412 40
 -8 8 -2 3551.9 157.122 40
 -8 2 -8 3851.26 164.991 40
 8 8 -2 3898.3 153.063 39
 8 8 2 3548.07 141.974 39
 8 2 8 3534.32 147.393 39
 8 -2 8 3840.2 150.448 39
 -2 8 8 3676.56 152.215 48
 8 8 -2 3878.29 160.318 38
 8 2 -8 3816.28 156.53 38
 8 -2 -8 3560.39 153.809 38
 -8 2 8 3875.69 162.618 37
 2 -8 8 3725.02 154.23 36
 -2 -8 8 3636.68 157.142 36
 8 -2 8 3693.59 154.42 35
 2 -8 8 3843.4 156.066 35
 -2 -8 8 3674.04 149.75 35
 -8 8 2 3763.17 158.623 34
 -8 8 -2 3637.04 156.173 34
 -2 8 -8 3596.49 157.213 34
 8 8 -2 3848.09 162.317 33
 -8 2 8 3752.93 159.895 32
 8 -8 2 3825.47 154.513 31
 8 -2 -8 3463.33 159.013 49
 8 -2 8 3881.03 156.306 30
 2 -8 8 4024.58 154.467 30
 8 -8 2 3548.48 141.979 29
 8 -8 -2 3706.97 154.438 29
 8 8 2 3582.54 151.415 28
 8 -8 -2 3632.57 151.516 50
 8 -8 2 3758.45 156.133 50
 2 8 -8 3757.51 160.423 49
 -4 8 8 2492.93 117.626 48
 -8 -4 8 2580.13 122.741 47
 8 8 -4 2459.31 117.344 46
 4 8 -8 2494.21 128.574 46
 8 4 -8 2637.81 132.132 46
 -8 4 8 2436.34 119.607 27
 8 8 4 2687.14 117.187 45
 4 8 8 2673.97 119.552 45
 8 4 8 2492.07 110.277 45
 8 -8 4 2439.65 120.851 44
 -4 -8 8 2626.58 121.218 43
 -8 -4 8 2607.47 127.38 43
 4 8 -8 2567.86 123.937 42
 -8 8 4 2558.25 117.499 48
 4 -8 8 2642.81 119.704 41
 -4 -8 8 2317.13 118.691 41
 -8 8 4 2414.81 127.315 40
 -8 8 -4 2523.94 127.041 40
 -8 4 -8 2447.06 129.479 40
 8 4 8 2597.81 119.826 39
 8 -4 8 2528.21 112.35 39
 8 8 -4 2629.15 129.094 38
 8 4 -8 2415.66 120.222 38
 8 -4 -8 2715.22 128.694 38
 -8 4 8 2682.99 133.819 37
 -8 -8 4 2569.07 126.298 43
 4 -8 8 2595.84 119.943 36
 4 8 8 2495.61 119.428 48
 -4 -8 8 2274.21 120.95 36
 -8 -8 4 2351.53 124.144 36
 8 -4 8 2544.35 124.715 35
 -4 8 8 2283.58 119.474 27
 4 -8 8 2401.11 121.44 35
 8 -8 4 2433.27 117.167 50
 -8 8 -4 2343.19 121.744 34
 -4 8 -8 2584.78 131.121 34
 8 8 -4 2448.84 125.015 33
 -8 4 8 2609.38 129.776 32
 -4 8 -8 2543.91 121.488 42
 8 -8 4 2562.28 123.775 31
 8 -4 8 2393.1 119.62 30
 8 -8 4 2677.9 118.456 30
 4 -8 8 2659.51 123.423 30
 8 -8 -4 2552.64 123.104 29
 8 8 4 2318.82 118.398 28
 8 4 8 2437.77 113.267 28
 8 4 -8 2362.85 127.849 49
 8 -4 -8 2422.34 127.817 49
 4 8 -8 2424.54 127.53 49
 8 8 -4 2434.45 120.093 49
 -8 6 8 1223.41 82.7765 27
 -6 8 8 1158.4 81.373 27
 -8 8 6 1262.54 84.1323 27
 6 8 8 1280.6 77.7337 48
 8 8 -6 1322.01 83.3378 46
 6 8 -8 1249.67 85.5963 46
 8 6 -8 1319.87 86.594 46
 6 8 8 1359.42 80.1739 45
 8 6 8 1144.6 71.6676 45
 -6 -8 8 1378.72 84.5941 43
 -8 -6 8 1424.73 89.1135 43
 -8 -8 6 1345.88 84.8968 43
 -6 -8 8 1454.47 84.6789 41
 -8 -8 6 1234.86 79.6414 41
 -8 8 -6 1229.77 82.2209 40
 -8 6 -8 1277.14 86.4433 40
 8 -8 6 1343.31 80.2554 44
 8 6 8 1236.03 73.3645 39
 8 8 -6 1353.77 85.5691 38
 8 8 6 1337.2 77.7394 45
 8 6 -8 1394.6 83.4682 38
 8 -6 -8 1263.35 82.9689 38
 8 -8 -6 1345.97 85.9233 38
 -8 6 8 1460.34 91.1972 37
 -6 -8 8 1359.43 86.7902 36
 -8 -6 8 1276.91 80.2452 36
 -8 -8 6 1477.56 90.2903 36
 8 -6 8 1312.51 83.8632 35
 8 -8 6 1342.47 82.8307 35
 6 -8 8 1222.5 81.9649 35
 -8 8 -6 1326.34 85.9366 34
 -6 8 -8 1231.92 85.265 34
 -8 6 -8 1342.23 84.6807 34
 8 -6 -8 1204.98 84.847 49
 8 8 -6 1285.28 81.1181 33
 8 -8 6 1385.1 83.2717 31
 8 -6 8 1463.28 87.1394 30
 8 -8 6 1349.53 82.4176 30
 6 -8 8 1372.38 84.2381 30
 8 -8 -6 1317.19 78.389 29
 8 8 6 1257.02 79.9842 28
 8 6 8 1307.45 77.4496 28
 6 8 -8 1305.23 87.9122 49
 8 8 -6 1293.03 85.1387 49
 8 6 -8 1390.16 90.3608 49
 -8 8 8 585.162 50.1899 27
 -8 8 -8 532.756 45.7792 40
 8 8 -8 603.7 51.0477 46
 8 8 8 531.002 43.3648 45
 -8 -8 8 565.865 48.9861 43
 8 8 -8 594.3 46.3993 38
 8 -8 -8 610.24 50.777 38
 -8 -8 8 575.04 49.3492 36
 8 -8 8 597.484 49.5611 35
 -8 8 -8 544.611 47.7164 34
 8 -8 8 595.353 48.114 30
 8 8 8 495.026 41.1624 28
 8 8 -8 523.773 48.3525 49
 8 -8 -8 546.164 50.1799 49
 -9 -1 1 3707.28 395.93 26
 -9 -1 1 4027.96 159.362 47
 -9 -1 -1 3682.57 373.743 26
 1 9 -1 4460.86 166.782 46
 1 1 9 4334.32 150.425 45
 -9 -1 -1 3921.79 374.349 16
 -9 1 -1 3499.85 386.06 25
 9 -1 1 4541.52 160.663 44
 -9 1 1 4310.47 404.769 16
 -9 1 -1 4054.99 383.323 16
 1 1 9 4629.47 163.325 43
 1 -1 9 4666.44 165.543 43
 -1 -1 9 4457.11 161.601 43
 -1 1 -9 3890.02 359.978 15
 -1 9 1 4426.8 169.64 42
 -1 9 -1 4493.43 168.902 42
 -9 -1 -1 4003.79 355.664 5
 -1 -1 9 4392.42 157.93 47
 1 -9 -1 4322.59 415.086 7
 -9 1 -1 3922.17 350.012 5
 -1 -9 -1 3311.99 361.694 7
 9 -1 -1 3555.35 370.05 15
 9 1 -1 3628.33 367.316 24
 9 1 -1 4040.16 394.383 15
 9 -1 1 3608.77 377.098 15
 -1 -9 1 3547.46 372.469 7
 -9 -1 1 4129.64 396.376 16
 9 1 1 4372.05 157.319 44
 -1 -1 -9 4438.27 413.909 14
 -1 1 -9 3368.9 353.684 14
 1 -1 -9 3894.66 391.497 14
 1 1 -9 3705.23 379.758 14
 9 1 -1 3827.65 374.692 23
 9 1 1 4096.58 374.862 24
 1 -9 1 4047.65 386.61 7
 9 -1 -1 4470.25 163.789 50
 9 1 1 4085.79 370.037 23
 9 -1 -1 4190.62 400.054 23
 9 -1 1 4708.14 413.786 23
 -9 1 1 4058.69 163.066 37
 -9 1 -1 4431.56 170.599 37
 -9 -1 -1 4232.44 165.393 37
 1 -9 1 3892.44 373.672 22
 -1 -9 1 3585.73 370.256 22
 -1 -9 -1 3739.99 365.417 22
 -1 9 1 4247.56 410.902 21
 -1 9 -1 4327.33 410.407 21
 1 9 1 4926.71 427.309 21
 1 9 -1 4231.37 405.862 21
 1 -9 -1 3597.65 356.25 13
 -1 9 -1 4109.03 158.313 33
 1 9 -1 4321.3 161.046 33
 -9 1 1 4403.67 165.042 32
 -9 1 -1 4363.09 166.374 32
 9 1 1 4445.82 158.834 31
 9 -1 1 4432.8 158.494 31
 -1 1 -9 4287.51 420.363 20
 1 1 -9 3670.56 376.149 20
 -1 -1 -9 3882.57 403.339 20
 -1 9 1 3334.62 355.701 19
 1 1 9 4528.78 162.207 27
 -1 9 -1 3657.49 360.22 19
 -1 1 9 4518.74 161.585 47
 1 9 1 3333.84 356.077 19
 1 9 -1 4418.41 396.247 19
 -9 1 -1 3716.72 392.232 26
 9 1 1 4365.68 159.161 50
 -1 1 -9 4301.18 378.713 6
 1 1 -9 4653.29 402.185 15
 9 1 1 4333.69 155.555 29
 9 1 -1 4515 161.054 29
 9 -1 1 4230.77 154.629 29
 9 1 1 4184.95 377.619 19
 9 -1 -1 4519.83 161.345 29
 9 1 -1 3450.44 363.267 19
 9 -1 1 3998 372.682 19
 -1 -1 9 4292.09 157.978 27
 9 1 -1 4257.82 158.222 50
 -1 9 -1 4386.26 156.987 28
 -1 -1 9 4676.61 435.467 18
 -1 9 1 4417.29 158.929 28
 1 9 -1 4229.69 153.689 28
 1 -1 9 4394.77 411.921 18
 1 9 1 4456.79 159.517 28
 -1 1 9 3612.73 387.029 18
 1 1 9 3222.52 361.319 18
 -9 1 1 3713.44 404.149 26
 1 -1 -9 4196.88 403.13 15
 9 -1 1 4318.98 160.611 50
 1 -1 9 4192.84 158.109 27
 -1 1 9 4289.01 159.633 27
 1 9 3 3302.61 131.467 48
 -3 9 1 3300.13 136.45 48
 -3 -1 9 3616.35 144.478 47
 9 -3 1 2488.29 314.972 17
 -9 1 3 2584.87 349.224 26
 -9 1 3 3330.25 139.415 47
 -9 -1 3 3547.46 147.225 47
 -9 -3 1 3306.07 145.049 47
 9 1 3 3548.24 142.196 44
 -3 -1 9 3405.51 141.94 43
 -9 1 -3 2890.62 345.119 26
 -9 3 -1 3446.26 397.074 26
 -3 1 9 3170.52 136.884 27
 -1 9 -3 3432.24 141.95 46
 3 9 -1 3431.17 146.419 46
 1 9 -3 3341.56 144.92 46
 -3 1 9 3491.38 142.731 47
 3 1 -9 3376.24 143.763 46
 3 1 9 3562.59 135.337 45
 -1 3 -9 3394.16 352.785 26
 1 3 -9 2959.57 339.743 26
 9 -1 3 3432.18 139.119 50
 -1 -3 9 3303.67 139.925 43
 9 3 1 3522.19 139.295 28
 1 3 9 3458.48 133.378 45
 -9 -3 -1 3147.31 348 16
 -1 3 9 3415.13 127.681 45
 -9 -3 1 3511.82 373.77 16
 -9 -1 3 2753.91 349.417 26
 3 -1 9 3475.91 132.799 45
 -9 3 1 3010.12 384.476 25
 9 3 -1 3440.05 134.482 44
 9 3 1 3415.28 139.02 44
 9 -3 -1 2884.31 347.09 15
 -9 1 -3 2789.14 341.981 25
 -9 1 3 3610.25 383.255 8
 -9 3 -1 2845.74 367.162 25
 -9 -1 3 3505.19 371.28 16
 9 -1 3 3453.58 141.666 44
 9 -3 -1 3540.4 137.062 44
 9 -3 1 3457.49 140.503 44
 -9 3 1 3362.68 359.106 8
 -9 1 3 3460.16 371.282 16
 -9 3 1 2753.25 334.188 16
 3 -1 9 3534.68 145.581 43
 -9 3 -1 3056.27 335.509 16
 -9 -3 -1 2797.11 314.673 5
 1 -3 9 3640.49 146.195 43
 -3 1 9 3527.58 136.943 43
 -1 3 9 3541.32 145.625 27
 -1 3 -9 3555.73 369.2 25
 1 3 -9 3208.1 353.501 25
 -1 -3 -9 2983.11 350.274 15
 9 -3 -1 3498.31 144.825 50
 1 3 9 3236 133.423 48
 -3 9 -1 3398.64 148.061 42
 -1 9 -3 3455.79 149.084 42
 1 -3 -9 3293.67 368.129 15
 -1 3 -9 3222.07 142.588 42
 1 3 -9 3340.3 146.133 42
 3 -1 -9 3123.24 356.401 15
 3 1 -9 3570.81 358.369 15
 1 3 9 3227.36 137.217 27
 3 1 9 3504.12 138.688 41
 3 -1 9 3586.2 144.022 41
 1 -3 9 3490.81 140.415 41
 -9 -1 -3 3096.82 333.905 5
 -1 -3 9 3273.83 133.604 41
 -1 3 -9 2942.39 333.14 24
 1 -9 -3 3013.85 365.422 7
 -1 -9 3 3146.38 130.429 41
 1 3 -9 3495.85 371.408 24
 3 -9 -1 3453.55 375.181 7
 -1 -9 -3 3023.37 353.437 7
 -9 3 1 3105.74 137.756 40
 -1 9 3 3460.89 137.844 48
 -9 3 -1 3622.93 150.41 40
 9 -1 -3 2758.72 342.374 15
 -9 1 -3 3327.34 142.259 40
 9 1 -3 3664.28 383.312 15
 9 1 -3 3232.79 367.281 24
 -9 1 -3 3323.76 348.448 5
 -1 3 9 3589.84 144.207 47
 3 -9 1 2822.44 327.865 7
 -3 -9 1 3337.15 361.035 16
 9 3 -1 3486.21 136.587 39
 9 -3 1 3025.88 352.332 15
 9 3 1 3391.08 136.279 39
 -3 -9 -1 2937.96 337.702 7
 -1 3 -9 3297.58 354.269 23
 -3 -1 -9 2943.63 344.083 14
 1 3 -9 2590.9 320.391 23
 -3 1 -9 3438.69 358.96 14
 1 -9 3 3077.75 345.104 7
 -3 -9 1 3587.02 373.055 7
 -1 -3 -9 3355.01 360.158 14
 9 3 -1 3509.71 138.853 38
 -1 -9 3 2890.25 346.095 7
 9 1 -3 3431.73 141.476 38
 9 -1 -3 3242.28 137.378 38
 1 -3 -9 3560.66 376.625 14
 9 -1 -3 3358.15 362.43 23
 1 3 -9 3279.99 351.253 14
 -9 1 3 3190.64 143.199 37
 3 -1 -9 3475.07 380.425 14
 3 1 -9 3422.74 381.057 14
 -9 -1 3 3365.19 139.956 37
 9 -3 -1 2915.55 348.153 23
 -9 3 1 3323.65 146.905 37
 9 -1 3 2941.98 326.105 23
 -9 3 -1 3552.72 151.152 37
 9 -3 1 2559.03 322.108 23
 9 -1 -3 3351.1 138.073 50
 -9 1 -3 3527.1 152.157 37
 3 1 9 3405.84 136.881 36
 3 -1 9 3500.83 143.821 36
 1 -3 9 3260.89 140.091 36
 -1 -3 9 3355.51 139.272 36
 3 -9 1 3619.69 353.112 22
 1 -9 3 3372.07 364.779 22
 9 -1 -3 2986.63 341.797 14
 9 1 -3 3228.99 363.937 14
 -1 -9 3 3580.3 383.557 22
 -3 -9 1 3831.26 394.875 22
 -3 -9 -1 3378.36 368.849 22
 1 -9 3 3216.31 134.966 35
 -3 -1 9 3286.7 134.829 27
 -3 9 1 3488.79 149.341 34
 -3 9 -1 3418.18 146.593 34
 -1 -3 9 2953.18 334.565 7
 -1 9 -3 3291.28 136.643 34
 -1 9 3 3306.19 363.998 21
 -3 9 1 3140.56 364.653 21
 1 9 3 3321.94 347.371 21
 -3 9 -1 3124.78 353.591 21
 1 -9 -3 2967.87 341.892 13
 -1 9 -3 2633.74 318.679 21
 3 9 1 3139.4 336.622 21
 1 9 -3 3436.4 371.017 21
 3 9 -1 3424.13 365.352 21
 3 -9 -1 2571.07 324.491 13
 -3 9 1 3603.22 145.906 33
 -3 9 -1 3235.93 142.599 33
 3 -1 9 3212.15 138.008 27
 -1 9 -3 3249.26 141.091 33
 1 9 -3 3313.01 142.231 33
 3 -9 1 3611.22 381.445 13
 3 9 1 3417.74 138.738 33
 3 9 -1 3187.93 139.181 33
 -9 -1 -3 3354.09 341.345 6
 -9 3 1 3235.71 372.116 20
 -9 3 -1 3078.67 377.912 20
 -9 1 3 3207.87 140.389 32
 -9 3 1 3567.17 150.302 32
 -9 3 -1 3471.57 149.913 32
 -9 1 -3 3502.36 150.495 32
 9 1 3 3448.24 135.82 39
 -9 -1 -3 3511.09 145.506 32
 9 1 3 3280.13 138.055 31
 -3 1 -9 3546.48 400.039 20
 9 -1 3 3509.14 142.717 31
 9 -3 -1 3380.01 133.885 31
 -3 -1 -9 3386.26 390.871 20
 9 -3 1 3460.14 139.854 31
 -1 -3 -9 3243.48 382.497 20
 -9 1 -3 2895.43 346.427 20
 1 9 3 3734.54 376.091 19
 9 -1 3 3527.96 136.503 30
 -3 -1 -9 3380.68 349.825 6
 9 1 -3 3569.06 381.814 23
 3 9 1 3242.17 356.111 19
 3 9 -1 3508.17 368.169 19
 3 -9 1 3163.27 127.623 30
 -3 1 -9 3290.53 355.029 6
 1 -9 3 3544.85 140.888 30
 -9 3 1 2795.99 362.454 26
 9 -1 3 3580.81 377.996 17
 3 1 9 3258.72 136.303 27
 9 3 1 3323.33 350.147 19
 9 3 1 3401.77 137.83 29
 1 9 -3 3175.17 141.3 42
 9 3 -1 3441.95 141.774 29
 9 3 -1 3248.29 355.14 19
 9 1 -3 3439.33 140.837 29
 9 -1 -3 3465.51 141.791 29
 9 -3 1 3382.39 138.129 29
 9 1 -3 3004.52 345.037 19
 9 -3 -1 3333.5 139.507 29
 9 -3 1 3534.16 144.794 50
 -1 3 -9 3163.26 345.469 6
 9 1 3 3291.29 134.432 50
 -1 -3 9 2874.16 349.411 18
 -3 9 -1 3160.49 136.414 28
 -1 9 -3 3238.13 131.795 28
 -3 9 1 3204.68 137.116 28
 1 -3 9 2774.38 328.047 18
 -3 -1 9 3278.91 379.786 18
 -1 9 3 3460.9 139.091 28
 1 9 3 3524.93 141.054 28
 3 9 -1 3465.3 137.608 28
 9 -1 -3 3379.43 365.549 24
 -3 1 9 3142.44 366.7 18
 3 9 1 3456.78 140.834 28
 1 3 -9 3123.25 336.198 6
 9 3 -1 3528.02 143.298 50
 9 3 1 3520.89 141.649 50
 9 1 3 2959.73 332.142 17
 9 1 -3 3503.86 139.529 50
 1 -3 9 3596.47 146.621 27
 -1 -3 9 3470.84 140.54 27
 3 1 9 3257.98 353.879 17
 9 -1 -3 3268.57 138.559 49
 -3 3 9 2887.87 128.169 47
 -3 -3 9 2961.98 125.864 47
 -3 -3 9 2751.58 129.503 43
 -9 -3 -3 2586.11 314.765 6
 9 -3 3 2199.49 307.073 17
 -9 -3 3 2664.28 128.335 47
 3 3 9 2332.64 314.857 17
 3 9 3 3147.2 352.672 17
 3 3 9 2637.46 118.271 27
 3 3 -9 2733.38 335.615 24
 3 3 -9 2561.82 126.952 46
 3 9 3 2782.66 120.556 45
 -9 3 3 2255.15 332.38 26
 -9 3 -3 2514.26 334.442 26
 -3 9 -3 2805.42 339.151 26
 3 3 -9 2494.09 321.542 26
 9 3 3 2822.91 127.163 44
 9 -3 3 2804.57 128.739 44
 3 -3 9 2892.52 127.532 43
 -3 -9 3 2834.45 320.306 16
 -9 -3 3 2269.23 298.605 16
 -9 -3 3 2576.49 125.361 43
 3 3 9 2479.37 116.052 45
 -3 9 -3 2672.77 130.724 42
 -9 3 -3 2219.09 325.701 25
 9 3 3 2572.06 122.157 28
 3 3 -9 2463.49 320.559 25
 3 3 -9 2660.3 130.37 42
 3 -3 -9 2560.47 334.315 15
 3 -3 9 2645.17 125.027 41
 -9 3 3 2781.16 342.285 8
 -3 -9 3 2463.25 119.2 41
 -3 9 3 2620.92 123.356 48
 -9 3 3 2477.2 121.006 40
 -9 3 -3 2480.97 128.069 40
 9 -3 -3 3029.86 360.375 15
 9 3 -3 2601.07 324.968 24
 9 -3 -3 2646.31 335.168 24
 9 3 -3 2572.59 116.544 39
 -3 9 -3 2461.81 314.644 24
 9 3 3 2543.25 120.181 39
 -3 -3 -9 2813.9 351.287 14
 9 -3 3 2841.79 127.678 50
 9 3 -3 2563.32 123.979 38
 9 -3 -3 2660.47 123.242 38
 9 3 -3 2734.52 340.028 23
 3 -3 -9 3325.09 359.956 14
 -9 3 3 2634.46 130.644 37
 -3 9 -3 2442.12 316.202 25
 -9 3 -3 2509.86 127.575 37
 3 3 -9 2170.89 295.852 23
 3 -3 9 2583.02 126.096 27
 9 -3 -3 2175.15 300.108 23
 9 -3 3 2249.3 300.444 23
 -9 3 3 2783.95 345.183 16
 3 -3 9 2495.64 124.211 36
 -3 -3 9 2719.53 122.345 36
 -3 -9 3 2662.9 121.211 36
 3 -9 3 2648.25 321.389 22
 9 -3 3 2621.77 119.887 35
 3 3 -9 2661.16 323.499 14
 9 3 -3 2475.79 316.764 14
 3 -9 3 2565.91 118.109 35
 -3 9 3 2730.03 134.838 34
 -3 -9 3 2354.42 314.145 22
 -3 -9 -3 2284.28 308.782 22
 -3 9 -3 2783.01 132.469 34
 -3 9 -3 3176.63 344.052 21
 -3 -9 3 2486.26 325.827 7
 -3 3 -9 2672.27 132.226 34
 -3 -3 9 2531.76 328.738 7
 3 9 -3 2402.71 318.475 21
 -3 9 -3 2637.3 128.891 33
 3 9 -3 2502.51 124.217 33
 -3 9 3 2192.59 310.001 21
 9 3 -3 2584.48 122.456 50
 3 -9 3 2887.96 341.088 13
 -9 3 3 2505.47 125.744 32
 -9 3 -3 2697.1 132.518 32
 9 -3 3 2715.22 126.203 31
 3 -9 -3 2464.37 330.99 13
 -9 -3 -3 2390.82 308.695 5
 -9 3 -3 2660.86 360.186 20
 -3 3 -9 2622.28 340.582 20
 -3 -3 -9 2721.37 352.734 20
 -9 3 -3 2246.82 302.286 5
 9 -3 3 2694.92 117.792 30
 3 9 3 2549.86 318.029 19
 3 -9 3 2505.37 118.307 30
 9 3 3 2784.78 120.182 29
 9 3 -3 2777.77 125.45 29
 9 3 -3 2522.11 314.701 19
 -3 3 -9 2890.14 346.894 6
 9 -3 -3 2568.73 123.584 29
 3 9 -3 2287 286.702 19
 -3 9 -3 2740.13 124.408 28
 -3 -3 9 2769.01 359.791 18
 -3 9 3 2479.74 117.233 28
 3 9 -3 2696.06 131.471 46
 3 9 3 2610.08 123.691 28
 9 3 3 2609.64 117.946 50
 9 -3 -3 2644.23 123.236 50
 3 3 9 2688.66 124.5 48
 -3 3 9 2510.79 124.161 27
 -1 5 9 2052.51 105.2 48
 -1 9 5 2026.44 107.54 48
 -5 1 9 2097.5 109.362 27
 -5 1 9 2149.24 113.69 47
 -9 1 5 2019.04 109.661 47
 -9 -1 5 1978.23 111.286 47
 9 -1 5 1679.52 274.642 17
 9 1 5 1748.97 274.196 17
 5 -1 9 2158.48 312.683 17
 -9 -1 -5 2060.18 281.624 6
 -9 -5 1 1977.77 109.726 47
 1 9 5 2035.17 299.653 17
 -5 -1 -9 1811.1 276.761 6
 -5 1 -9 1960.32 291.634 6
 5 9 -1 2107.92 111.552 46
 1 9 -5 2297.35 118.424 46
 -1 5 -9 2121.32 302.662 6
 1 5 -9 1880.6 282.502 6
 -1 9 -5 2234.47 297.133 6
 5 1 -9 1962.93 113.052 46
 5 -1 -9 1858.15 109.594 46
 1 5 9 2044.06 102.114 45
 5 1 9 1989.64 101.306 45
 5 -1 9 2012.87 98.7571 45
 -9 1 5 2028.41 315.325 26
 -9 5 -1 1958.85 310.634 26
 1 9 -5 2426.06 303.173 26
 -1 5 -9 1980.45 291.783 26
 1 5 -9 2274.51 320.282 26
 9 1 5 2085.58 108.144 44
 -1 5 -9 2152.42 119.125 42
 9 -1 5 1990.81 105.936 44
 9 -5 1 2058.17 109.106 44
 5 -9 1 1947.54 105.959 44
 5 -9 -1 2076.34 106.101 44
 1 5 9 2021.82 104.818 27
 5 1 9 1762.51 290.387 17
 1 -5 9 2186.89 108.988 43
 -1 -5 9 2046.65 108.963 43
 -5 -1 9 2074.57 110.907 43
 -5 -9 -1 2315.54 317.089 16
 -5 -9 1 2065.71 296.378 16
 -9 -5 -1 2035.01 287.725 16
 -9 -5 1 2126.83 295.994 16
 -9 -1 5 1804.69 269.885 16
 -9 1 5 1700.9 258.692 16
 -5 9 -1 2215.05 116.962 42
 -1 9 -5 1968.45 113.947 42
 1 9 -5 1973.17 112.768 42
 -9 5 1 2191.06 332.333 25
 -9 5 -1 1860.07 304.159 25
 1 9 -5 2246.82 306.888 25
 -1 5 -9 2384.35 325.029 25
 1 5 -9 2259.51 323.064 25
 5 1 -9 1904.86 276.824 25
 1 5 -9 2119.96 119.348 42
 5 -1 9 2070.39 111.106 41
 -9 -1 5 2332.77 304.247 8
 -9 1 5 1517.64 253.075 8
 1 -9 5 1931.35 101.096 41
 -1 -9 5 1968.92 105.75 41
 -5 9 1 1957.78 107.733 40
 1 9 -5 2203.09 294.52 24
 -9 5 1 2046.66 114.132 40
 -9 5 -1 2003.44 115.352 40
 -9 1 -5 1983.37 111.727 40
 -1 9 -5 1935.79 288.364 25
 9 -5 -1 2071.65 105.53 44
 9 5 -1 1902.24 103.701 39
 -1 9 -5 1726.56 272.016 24
 -1 5 -9 1745.13 271.616 24
 1 5 -9 1823.82 296.163 24
 5 1 -9 1992.58 279.953 24
 9 5 1 2029.34 105.818 39
 9 1 -5 1905.37 294.987 24
 9 -1 -5 1856.15 287.943 24
 5 1 -9 2059.37 113.63 49
 -1 -5 -9 1625 269.87 15
 1 -5 -9 1670.53 268.534 15
 5 -1 -9 2150.81 301.789 15
 9 1 5 2162.76 109.908 39
 9 -1 5 2145.15 106.195 39
 9 -1 -5 1728.87 277.089 15
 9 1 -5 2054.99 302.899 15
 9 -5 -1 1619.3 264.238 15
 5 1 9 1964.97 105.756 39
 -1 -5 9 1936.43 105.844 41
 9 5 -1 2145.71 110.668 38
 9 1 -5 2103.35 114.491 38
 9 -1 -5 2106.15 114.174 38
 -5 1 9 2059.7 112.322 37
 -9 1 5 2006.7 111.896 37
 -9 5 1 1942.68 109.946 37
 -9 5 -1 1933.16 108.963 37
 -1 9 -5 2179.91 305.263 23
 1 9 -5 1982.44 288.122 23
 -1 5 -9 1400.92 254.774 23
 1 5 -9 1695.73 274.247 23
 5 1 -9 1986.05 281.332 23
 9 1 -5 1881.46 288.775 23
 9 -1 -5 2311.43 311.496 23
 9 -5 -1 1754.03 276.733 23
 9 -5 1 2065.12 293.721 23
 5 -1 9 2168.03 115.561 36
 1 -5 9 2135.24 114.303 36
 -1 -5 9 2103.52 113.374 36
 1 -5 9 2140.94 111.536 41
 -1 -9 5 2010.78 106.204 36
 9 -1 5 2027.62 109.349 35
 -5 -1 -9 1964.98 289.737 14
 -5 1 -9 1860.73 273.215 14
 -1 -5 -9 1730.57 261.017 14
 5 -1 -9 2112.11 305.728 14
 5 1 -9 2004.96 299.528 14
 9 -1 -5 1956.76 282.926 14
 9 1 -5 1654.22 274.143 14
 1 -9 5 2048.33 109.536 35
 -1 -9 5 2175.29 112.942 35
 1 -9 5 2061.36 297.706 22
 -1 -9 5 2259.81 309.251 22
 -5 -9 1 1670.61 272.237 22
 -5 -9 -1 1878.69 289.605 22
 -5 9 1 2028.74 115.887 34
 -5 9 -1 2002.95 115.438 34
 -1 9 -5 2077.72 107.758 34
 -1 -9 -5 1861.72 276.811 7
 -1 5 -9 2010.2 112.667 34
 1 -9 5 2695.49 321.834 7
 -5 1 -9 1975.17 109.788 34
 -1 -9 5 1972.65 293.313 7
 -1 -5 9 2141.96 287.024 7
 -5 9 1 2037.53 113.129 33
 -5 9 -1 1966.62 113.787 33
 -1 9 -5 1984.62 108.834 33
 1 9 -5 2194.63 113.191 33
 5 9 1 1940.29 106.008 33
 -5 9 1 1736.62 279.377 21
 5 9 -1 2108.5 114.365 33
 -5 9 -1 1790.7 270.138 21
 -1 9 -5 1356.52 224.489 21
 1 9 -5 2036.22 284.107 21
 5 9 -1 2018.42 282.557 21
 -9 1 5 1950.43 110.261 32
 -9 5 1 1965.86 111.499 32
 -9 5 -1 2016.84 112.507 32
 9 -1 -5 1936.86 111.138 49
 9 1 5 2084.93 107.314 31
 9 -1 5 2120.67 109.778 31
 1 -9 -5 1840.28 285.579 13
 -9 -5 -1 2080.79 282.121 5
 9 -5 1 2047.47 107.733 31
 5 -9 -1 2516.36 336.314 13
 5 -9 1 2159.81 311.61 13
 -9 5 1 1978 310.207 20
 -9 -1 -5 2290.63 301.86 5
 -9 5 -1 2011.2 313.605 20
 5 -9 1 2171.45 109.426 31
 -9 1 -5 1340.12 257.331 20
 -5 1 -9 2275.35 337.52 20
 -5 -1 -9 1925.77 311.799 20
 -1 9 -5 2098.84 289.283 26
 -9 1 -5 1631.36 255.81 5
 9 1 5 1926.68 106.306 30
 9 -1 5 2040.02 108.574 30
 5 -1 9 1986.65 101.471 30
 1 5 9 2190.27 298.929 17
 1 -9 5 2091.78 109.578 30
 -1 -9 5 2069.65 108.305 30
 9 5 1 2114 110.377 29
 9 5 -1 2068.97 110.387 29
 9 1 -5 2060.93 103.989 29
 -5 -1 9 2171.57 114.157 47
 9 -1 -5 2042.1 105.302 29
 9 -5 1 2098.46 108.503 29
 9 -5 -1 1949.89 107.219 29
 1 9 5 1497.35 238.275 19
 5 9 1 2138.85 297.824 19
 5 9 -1 2134.46 292.539 19
 9 5 1 2106.6 288.849 19
 9 5 -1 1754.59 270.331 19
 9 1 -5 1783.42 264.779 19
 9 -1 -5 2102.81 286.666 19
 5 -1 -9 2038.25 112.726 49
 -5 9 -1 2084.57 112.051 28
 -5 9 1 2079.96 111.317 28
 1 9 5 2046.65 105.963 48
 1 9 5 1934.93 102.82 28
 5 9 -1 2029.84 104.6 28
 5 9 1 2034.66 108.647 28
 -1 -5 9 2291.09 322.748 18
 -5 -1 9 2253.31 318.323 18
 9 5 1 2133.24 109.547 28
 9 1 -5 2111.38 114.566 49
 9 -5 -1 2128.93 113.156 50
 9 -5 1 2172.26 114.533 50
 -9 1 -5 1580.02 241.334 6
 1 -5 9 2152.41 112.276 27
 -9 5 1 1751.87 294.175 26
 5 -1 9 2166.86 110.348 27
 -1 5 9 2162.41 112.378 27
 1 5 9 1962.42 107.112 48
 3 9 5 1562.27 90.9892 48
 -3 9 5 1399.26 90.5325 27
 -5 3 9 1782.04 101.155 47
 -5 -3 9 1719.72 99.6498 47
 -9 -3 5 1616.58 99.5094 47
 -9 -5 3 1608.36 97.0491 47
 5 -3 9 1583.58 98.3384 27
 3 9 -5 1577.77 101.913 46
 3 5 -9 1541.7 100.269 46
 5 3 -9 1616.51 104.161 46
 5 9 3 1604.21 92.884 45
 3 9 5 1572.74 90.4315 45
 -5 9 3 1579.26 98.6639 48
 3 5 9 1653.27 93.964 45
 5 3 9 1465.39 88.5684 45
 9 3 5 1557.12 93.1749 44
 9 -3 5 1784.37 101.287 44
 9 -5 3 1641.24 99.1417 44
 5 -9 3 1569.04 95.0215 44
 3 -9 5 1505.81 89.3325 44
 -3 -5 9 1687.25 101.797 43
 -5 -3 9 1661.85 100.932 43
 -9 -3 5 1553.97 97.0764 43
 -9 -5 3 1638.87 103.111 43
 -5 9 -3 1594.3 97.5157 42
 -3 9 -5 1493.74 97.8441 42
 3 9 -5 1547.4 95.0222 42
 -3 5 -9 1531.26 95.9709 42
 3 5 -9 1418.41 97.3052 42
 5 3 -9 1634.92 98.8539 42
 5 -3 9 1543.84 96.0691 41
 -3 -5 9 1633.03 95.1318 41
 -3 -9 5 1616.37 97.3276 41
 -5 9 3 1632.89 100.478 40
 -9 5 3 1630.97 102.979 40
 -9 5 -3 1500.1 101.124 40
 -9 3 -5 1609.86 104.022 40
 9 3 -5 1671.42 93.5581 39
 9 5 -3 1476.84 91.5688 39
 9 5 3 1707.33 97.5188 39
 9 3 5 1463.32 92.82 39
 5 3 9 1503.04 89.9285 39
 5 9 -3 1578.33 99.4537 38
 9 5 -3 1388.33 92.8924 38
 9 3 -5 1721.64 104.069 38
 9 -3 -5 1580.39 99.4693 38
 9 -5 -3 1546.36 94.1508 38
 -5 3 9 1669.56 103.832 37
 -9 3 5 1552.63 102.513 37
 -9 5 3 1587.71 101.671 37
 -9 5 -3 1444.58 93.6637 37
 -9 3 -5 1538.96 100.343 37
 9 3 -5 1521.27 98.1062 49
 3 5 9 1608.71 98.3122 48
 5 -3 9 1641.25 101.674 36
 3 -5 9 1575.1 99.2723 36
 -3 -5 9 1593.38 98.8693 36
 -3 -9 5 1622.27 97.8081 36
 -5 -9 3 1541.12 95.7408 36
 -3 9 5 1639.35 98.8486 48
 9 -3 5 1711.7 100.363 35
 5 -3 9 1485.38 91.9622 35
 3 -5 9 1582.14 93.6005 35
 3 -9 5 1590.72 96.4533 35
 -5 9 -3 1595.56 102.023 34
 -3 9 -5 1721.64 103.703 34
 -3 5 -9 1498.84 101.057 34
 -5 3 -9 1592.86 102.034 34
 5 9 -3 1567.35 99.0232 49
 -5 9 -3 1585.56 102.291 33
 -3 9 -5 1540.62 96.4336 33
 3 9 -5 1580.45 97.5077 33
 5 9 -3 1543.44 99.1407 33
 -9 3 5 1483.85 98.9945 32
 -9 5 3 1638.13 101.736 32
 -9 5 -3 1473.31 96.7073 32
 -9 3 -5 1603.75 103.495 32
 5 3 -9 1520.64 100.357 49
 9 -3 5 1722.46 100.286 31
 9 -5 3 1512.76 95.7699 31
 5 -9 3 1595.08 95.3645 31
 3 -9 5 1620.41 95.2536 31
 9 -5 3 1694.5 99.8056 50
 9 -3 5 1685.17 97.5541 30
 3 -5 9 1571.31 97.5044 41
 5 -3 9 1709.04 95.2473 30
 3 -5 9 1517.61 90.1783 30
 5 -9 3 1578.04 91.2723 30
 3 -9 5 1482.24 92.5489 30
 9 5 3 1576.71 94.0855 29
 9 5 -3 1619.85 96.2303 29
 5 9 -3 1757.58 104.437 46
 9 -3 -5 1479.4 91.3616 29
 9 -5 -3 1455.46 93.6538 29
 -5 9 3 1689.02 96.9532 28
 9 -5 -3 1620.32 96.5877 50
 3 9 5 1610.3 94.9825 28
 5 9 3 1589.4 96.9948 28
 9 5 3 1572.45 96.6797 28
 9 3 5 1592.99 97.3944 28
 5 -9 -3 1729.25 96.3217 50
 3 -5 9 1620.9 100.636 27
 3 9 -5 1636.44 104.91 49
 3 5 -9 1654.94 101.445 49
 5 -3 -9 1585.78 99.1647 49
 9 -3 -5 1536.91 101.41 49
 -5 3 9 1427.83 93.8357 27
 -3 5 9 1492.36 97.4841 27
 -5 9 5 969.035 75.8968 48
 -9 5 5 971.27 75.6233 27
 -5 9 5 950.18 77.2947 27
 -9 -5 5 848.997 69.9717 47
 5 5 -9 918.032 79.0292 49
 5 9 -5 934.05 78.0018 46
 5 5 -9 989.233 82.3136 46
 9 5 -5 838.092 72.4415 49
 5 9 5 1001.71 74.1559 45
 5 5 9 966.176 71.789 45
 5 -9 5 1040.57 73.873 44
 -5 -5 9 1022.58 80.274 43
 -9 -5 5 985.227 79.1271 43
 -5 9 -5 943.384 75.0348 42
 5 5 -9 891.066 73.871 42
 5 -5 9 889.273 72.6295 41
 -5 -9 5 924.966 75.2619 41
 -9 5 5 957.865 77.8231 40
 -9 5 -5 833.78 77.3798 40
 -5 5 -9 990.732 78.4664 40
 9 5 5 928.09 72.2289 39
 5 9 -5 971.542 75.7948 38
 9 5 -5 882.592 76.1847 38
 9 -5 -5 896.896 74.5226 38
 5 -5 -9 946.299 72.2063 38
 -9 5 5 943.398 79.9938 37
 9 -5 5 920.679 74.3899 44
 5 -5 9 987.543 79.2214 36
 -5 -5 9 995.394 77.2424 36
 -5 -9 5 986.927 77.1423 36
 9 -5 5 797.257 69.0556 35
 5 -5 9 946.523 74.0876 35
 5 -9 5 933.209 74.3477 35
 -5 9 -5 933.735 78.5002 34
 -5 5 -9 949.515 80.1247 34
 -5 9 -5 912.862 73.9328 33
 5 9 -5 966.658 76.8726 33
 9 5 -5 950.858 75.5424 33
 -9 5 5 997.773 80.2826 32
 -9 5 -5 936.037 76.3297 32
 9 -5 5 968.202 75.9548 31
 5 -9 5 941.017 74.0227 31
 9 -5 5 846.585 69.4547 30
 5 -5 9 1084.19 75.8873 30
 5 -9 5 981.392 75.2696 30
 9 -5 -5 1007.55 75.775 29
 5 9 5 947.476 73.9847 28
 9 5 5 932.462 74.5385 28
 5 5 9 1000.4 76.6394 48
 5 9 -5 957.171 80.3077 49
 -5 5 9 857.251 75.8046 27
 1 7 9 872.338 72.4748 48
 -1 7 9 975.185 74.2633 48
 1 9 7 881.051 70.9666 48
 -7 1 9 888.044 75.1 47
 -7 -1 9 1004.82 79.3083 47
 -9 1 7 907.916 75.2525 47
 -9 -1 7 988.009 78.9744 47
 1 9 -7 876.7 72.0029 46
 9 1 -7 973.165 75.3583 46
 7 1 -9 1015.71 81.5603 46
 9 -1 -7 947.441 74.7463 46
 1 7 9 848 63.5073 45
 9 -7 -1 927.987 70.4015 44
 9 -7 1 893.416 72.5652 44
 7 -9 -1 971.863 71.6496 44
 7 -9 1 1033.4 77.3699 44
 7 1 -9 1000.16 81.0859 49
 9 1 7 885.041 70.1434 28
 -7 -1 9 788.888 66.9632 43
 -7 -9 1 992.127 76.0922 43
 -1 9 -7 1048.85 82.3342 42
 1 9 -7 829.436 74.4047 42
 -1 7 -9 903.536 77.801 42
 1 7 -9 1042.16 83.5864 42
 7 -9 -1 882.534 73.59 50
 1 -7 9 873.555 72.1827 41
 1 -9 7 815.034 69.0381 41
 -1 -7 9 908.152 73.9289 41
 -1 -9 7 919.293 74.7536 41
 -7 9 1 1029.58 81.0768 40
 -9 7 1 976.689 80.3569 40
 -7 9 -1 822.461 71.2891 40
 -9 7 -1 1005.38 82.101 40
 -9 1 -7 1113.51 85.464 40
 -9 -1 -7 914.475 74.7902 40
 7 9 -1 942.208 69.4716 39
 9 7 -1 1003.55 75.363 39
 9 7 1 831.402 68.3834 39
 9 1 7 831.257 69.5696 39
 9 -1 7 860.283 68.8198 39
 7 1 9 965.452 74.4281 39
 7 -1 9 861.151 71.0397 39
 9 7 -1 873.632 72.7905 38
 7 1 -9 1043.48 76.3378 38
 9 1 -7 953.594 76.8576 38
 7 -1 -9 951.319 73.3803 38
 9 -1 -7 841.73 74.1045 38
 -7 1 9 1050.49 79.7378 37
 -9 1 7 1006.01 78.7291 37
 1 -7 9 988.476 79.1427 36
 1 -9 7 962.662 73.5035 36
 -1 -7 9 1052.76 81.2214 36
 -1 -9 7 920.854 73.7983 36
 7 -1 9 953.025 72.5889 35
 1 -7 9 904.787 71.7308 35
 -1 -7 9 1041.74 73.5299 35
 1 -9 7 971.035 76.772 35
 -1 -9 7 1002.35 76.9464 35
 -7 9 1 948.247 78.99 34
 -7 9 -1 1027.92 82.6431 34
 -1 7 -9 896.95 74.1153 34
 -7 9 -1 925.342 79.4599 33
 7 -1 -9 820.067 72.7969 46
 7 9 1 1001.08 74.893 33
 7 9 -1 874.509 74.6028 33
 9 7 1 1056.28 78.8564 33
 9 7 -1 984.716 79.0459 33
 -9 1 7 1023.15 79.7942 32
 -9 7 1 858.077 70.4865 32
 -9 7 -1 833.083 68.7582 32
 9 -7 1 884.431 71.0131 31
 7 -9 1 986.385 74.2594 31
 9 -1 7 930.167 73.9562 30
 7 -1 9 1007.78 74.3171 30
 1 -9 7 1003.05 75.1995 30
 -1 -9 7 1013.5 73.5758 30
 9 -7 1 984.732 73.6467 29
 9 -7 -1 916.437 73.462 29
 7 -9 1 956.18 72.6187 29
 7 -9 -1 1038.79 77.8061 29
 7 9 1 987.153 75.3783 28
 9 7 1 946.872 73.3107 28
 9 -7 -1 988.972 77.4828 50
 9 -7 1 881.547 73.3117 50
 7 -9 1 976.353 76.8743 50
 9 1 -7 960.685 80.2708 49
 7 -1 -9 978.786 80.4822 49
 9 -1 -7 891.896 77.2264 49
 -1 9 7 923.36 73.7169 48
 -1 7 9 752.369 65.3218 27
 3 9 7 720.896 62.1737 48
 -3 7 9 778.205 64.3974 48
 -3 9 7 685.622 63.8281 27
 -3 9 7 744.125 66.6437 48
 -7 3 9 776.511 66.5215 47
 -7 -3 9 800.343 68.7502 47
 -9 3 7 804.963 66.7015 47
 -9 -3 7 682.239 65.5273 47
 -3 -7 9 814.219 68.5919 43
 7 9 -3 679.162 62.2771 46
 3 9 -7 750.59 67.8965 46
 3 7 -9 683.635 66.2757 46
 9 3 -7 648.981 62.0509 46
 7 3 -9 733.557 70.7453 46
 9 -3 -7 698.838 63.4168 46
 7 -3 -9 686.572 66.321 46
 3 9 7 748.434 61.9651 45
 3 7 9 748.859 62.2094 45
 7 3 9 668.939 58.0057 45
 9 -7 3 756.3 68.2759 44
 7 -9 3 646.869 61.8446 44
 -7 9 3 785.114 68.1701 48
 -7 -3 9 790.431 68.4984 43
 -9 -3 7 685.96 63.6297 43
 -7 -9 3 638.412 61.7266 43
 -9 -7 3 661.459 66.3595 43
 -3 9 -7 696.595 65.6194 42
 3 9 -7 764.166 67.4115 42
 -3 7 -9 681.507 64.9127 42
 3 7 -9 727.135 69.5034 42
 7 -3 9 762.448 67.2344 41
 3 -7 9 752.649 66.7648 41
 3 -9 7 814.914 64.5205 41
 -3 -7 9 756.095 66.8675 41
 -3 -9 7 605.601 61.7137 41
 -7 9 3 648.404 65.2889 40
 -9 7 3 676.827 67.5263 40
 -7 9 -3 586.758 60.074 40
 -9 7 -3 736.197 70.1533 40
 -9 3 -7 699.098 70.5767 40
 -7 3 -9 678.659 68.9875 40
 9 7 -3 814.788 68.0818 39
 9 7 3 681.726 60.8785 39
 9 3 7 641.399 60.9668 39
 7 3 9 567.408 56.8811 39
 9 -3 7 809.572 62.9743 39
 7 -3 9 716.575 63.1121 39
 7 9 -3 702.638 67.0584 38
 9 7 -3 685.773 65.2477 38
 9 3 -7 620.043 63.0323 38
 9 -3 -7 683.994 65.8522 38
 7 -3 -9 709.409 64.407 38
 9 -7 -3 640.041 60.1353 38
 7 -9 3 679.941 62.1746 50
 -7 3 9 783.683 71.7961 37
 -9 3 7 749.89 69.7536 37
 -9 7 3 694.42 65.1733 37
 -9 3 -7 652.405 65.5667 37
 3 -7 9 748.811 66.6986 36
 -3 -7 9 585.105 61.1658 36
 -3 -9 7 699.994 64.9066 36
 9 -3 7 681.884 64.1573 35
 7 -3 9 665.231 63.3441 35
 3 -7 9 774.602 67.257 35
 3 -9 7 798.616 69.897 35
 -3 -9 7 646.964 61.4096 35
 3 7 9 655.535 62.5904 48
 3 9 -7 785.79 71.9186 49
 -9 7 -3 662.106 61.6591 34
 -7 9 -3 674.336 65.3601 34
 -3 9 -7 763.663 68.8527 34
 -3 7 -9 748.467 69.3789 34
 -7 3 -9 741.937 66.4553 34
 -7 9 -3 663.62 65.6045 33
 7 9 -3 661.354 64.8734 33
 9 7 -3 738.384 67.0489 33
 -9 3 7 780.644 70.2874 32
 -9 7 3 590.949 59.2957 32
 9 -3 -7 695.46 67.5814 49
 9 -3 7 704.164 61.3183 31
 9 -7 3 684.816 63.8448 31
 7 -9 3 753.233 66.4429 31
 3 -9 7 898.96 67.2949 31
 9 -3 7 729.874 66.5657 30
 7 -3 9 764.38 66.1309 30
 3 -7 9 731.34 62.1366 30
 3 -9 7 763.624 66.0936 30
 9 -7 -3 729.078 65.6026 29
 7 -9 -3 708.31 66.0829 29
 7 9 3 786.741 69.0164 28
 9 7 3 710.22 64.0732 28
 9 3 7 774.601 64.847 28
 9 -7 -3 773.623 66.9269 50
 9 -7 3 792.022 67.6274 50
 7 -9 -3 675.22 61.4358 50
 3 7 -9 723.174 67.2771 49
 7 3 -9 799.823 72.7491 49
 9 3 -7 713.599 68.3896 49
 7 -3 -9 769.234 69.636 49
 -7 3 9 732.038 65.7297 27
 -3 7 9 730.366 66.7035 27
 7 -5 -9 391.455 49.1241 49
 -7 5 9 384.251 48.4008 27
 -9 5 7 342.995 44.7363 27
 -5 9 7 398.561 50.0424 27
 -7 9 5 441.609 53.3836 27
 -9 -5 7 432.244 47.9453 47
 7 9 -5 473.769 51.3349 46
 5 9 -7 382.713 49.6086 46
 5 7 -9 371.576 49.27 46
 9 5 -7 383.901 47.891 46
 7 5 -9 447.558 54.6342 46
 7 9 5 503.979 51.0462 45
 7 5 9 457.421 47.8852 45
 5 9 7 407.165 47.5025 45
 5 7 9 439.231 49.2875 45
 -9 7 5 380.641 49.4666 27
 9 -5 7 477.408 48.8572 44
 7 -9 5 395.813 46.2103 44
 -5 -9 7 436.057 48.6869 43
 -9 -7 5 510.945 56.0906 43
 7 5 -9 393.144 51.6865 49
 -5 -7 9 464.381 51.459 43
 -7 -5 9 403.559 50.6752 43
 -9 -5 7 473.396 53.4263 43
 -7 -9 5 432.504 48.2769 43
 9 5 -7 371.933 48.6849 49
 5 -7 9 518.895 52.2782 41
 -5 -7 9 500.569 52.1566 41
 -5 -9 7 375.406 47.9896 41
 -7 -9 5 320.499 45.264 41
 -9 -7 5 448.861 49.1073 41
 -7 9 5 511.694 56.1073 40
 7 -5 9 470.575 50.0554 41
 -9 7 5 413.591 51.8992 40
 -7 9 -5 374.463 46.7554 40
 -9 7 -5 405.779 50.7074 40
 -9 5 -7 415.729 53.4511 40
 -7 5 -9 400.75 51.0429 40
 7 -5 9 475.021 47.2033 39
 9 7 5 394.081 45.6781 39
 9 5 7 444.233 47.7659 39
 9 -7 5 535.278 54.196 44
 7 5 9 410.547 43.6768 39
 9 5 -7 470.24 52.9377 38
 5 -7 -9 431.617 48.1771 38
 7 9 -5 434.54 50.3218 38
 9 7 -5 396.013 50.0664 38
 9 -5 -7 434.973 51.1001 38
 7 -5 -9 427.415 49.1838 38
 9 -7 -5 477.312 52.3861 38
 -7 5 9 540.789 58.8883 37
 -9 5 7 504.66 58.5051 37
 -9 7 5 418.017 49.474 37
 5 9 -7 416.504 53.4006 49
 5 -7 9 506.28 53.5119 36
 -7 9 5 403.697 47.3984 48
 -5 -7 9 419.436 51.2608 36
 -5 -9 7 417.664 51.9515 36
 -7 -9 5 430.172 50.9879 36
 -9 -7 5 369.685 47.7722 36
 -5 -9 7 457.078 49.9014 35
 9 -5 7 399.011 49.1934 35
 9 -7 5 314.888 41.861 35
 7 -5 9 412.064 48.6695 35
 7 -9 5 444.818 47.6997 35
 5 -7 9 420.003 51.0972 35
 5 -9 7 446.634 51.2315 35
 -9 7 -5 371.151 46.6853 34
 -7 9 -5 421.639 52.306 34
 -5 9 -7 430.397 52.9915 34
 -5 7 -9 416.136 51.5536 34
 -7 5 -9 484.663 54.1624 34
 9 -5 -7 487.144 57.9152 49
 7 9 -5 418.792 48.7613 33
 9 7 -5 415.243 49.4029 33
 5 7 -9 405.512 51.9062 49
 -9 5 7 437.952 51.6568 32
 -9 7 5 353.894 46.1181 32
 -9 5 -7 424.142 50.5195 32
 9 -7 5 523.135 54.4797 31
 7 -9 5 539.532 55.3578 31
 -5 9 7 478.702 51.4913 48
 9 7 5 389.558 42.7704 45
 9 -5 7 420.309 47.962 31
 5 -9 7 408.114 44.7338 31
 9 -5 7 504.144 53.1129 30
 9 -7 5 431.246 48.3277 30
 5 -7 9 483.82 51.9599 30
 5 -9 7 521.189 53.5794 30
 7 -5 9 370.558 45.8491 30
 7 -9 5 433.117 48.1128 30
 5 9 7 429.711 46.8764 48
 9 -7 -5 389.137 46.581 29
 7 -9 -5 424.702 48.7855 29
 5 9 7 447.92 46.3747 28
 7 9 5 448.48 51.0898 28
 9 7 5 372.532 46.0501 28
 9 5 7 374.617 45.6925 28
 7 9 -5 485.572 52.6253 49
 9 7 -5 372.068 46.8515 49
 -5 7 9 529.354 56.3483 27
 5 7 9 527.597 54.7 48
 -7 7 9 235.842 35.6378 27
 -7 9 7 189.808 31.7908 27
 7 9 -7 172.598 32.3856 46
 9 7 -7 227.799 33.4631 46
 7 7 -9 201.76 35.6841 46
 7 9 7 206.748 33.0246 45
 9 7 7 196.764 29.6476 45
 7 7 9 184.717 30.3482 45
 -7 -7 9 195.918 33.961 43
 -7 -9 7 220.67 34.4776 43
 -9 -7 7 217.006 35.355 43
 -7 -9 7 261.476 35.7107 41
 -9 7 7 191.999 32.6065 27
 -9 7 -7 169.416 31.3822 40
 -7 7 -9 231.526 36.5962 40
 9 7 7 215.432 30.2808 39
 9 7 -7 191.124 32.6888 38
 9 -7 -7 214.24 34.1484 38
 7 -7 -9 238.471 35.2566 38
 7 -9 -7 179.577 31.9767 38
 -9 7 7 222.391 34.2613 37
 7 7 -9 178.646 32.573 49
 -7 -7 9 210.974 34.508 36
 -7 -9 7 232.25 35.8551 36
 -9 -7 7 188.709 32.4303 36
 9 -7 7 189.992 31.8617 35
 7 -7 9 212.238 34.6706 35
 7 -9 7 189.419 31.315 35
 -9 7 -7 219.881 32.5212 34
 -7 9 -7 158.194 29.5315 34
 -7 7 -9 184.709 33.9066 34
 9 -7 7 230.713 32.6698 31
 7 -9 7 178.506 29.3257 31
 9 -7 7 226.136 34.445 30
 7 -7 9 175.967 30.6629 30
 7 -9 7 228.868 33.872 30
 7 9 7 256.639 33.6658 28
 9 7 7 208.983 32.0315 28
 7 9 -7 241.704 36.5304 49
 9 7 -7 239.91 35.881 49
 7 -7 -9 193.993 32.8682 49
 9 -7 -7 142.27 31.3659 49
 1 9 9 285.287 40.4901 48
 -1 9 9 373.939 46.5392 48
 9 9 1 358.323 42.4133 28
 -9 1 9 355.131 44.7936 47
 9 1 -9 308.85 44.17 46
 9 -1 -9 354.964 44.9136 46
 9 1 -9 308.812 44.5587 49
 9 -9 -1 342.844 42.0487 44
 9 -9 1 378.598 45.9064 44
 9 -1 -9 259.065 40.4143 49
 -9 -9 1 344.543 45.6604 43
 -1 9 -9 263.425 41.5103 42
 1 9 -9 279.232 42.207 42
 1 -9 9 346.166 42.9869 41
 -1 -9 9 380.842 46.1183 41
 -9 9 1 328.196 45.5067 40
 -9 9 -1 324.357 45.1527 40
 -9 1 -9 336.604 46.5938 40
 -9 -1 -9 323.616 44.5122 40
 -9 9 1 289.252 39.725 48
 9 9 -1 321.159 41.4238 39
 9 9 1 353.872 40.4306 39
 9 1 9 354.743 43.8667 39
 9 -1 9 285.276 39.9612 39
 9 1 -9 285.573 39.9405 38
 9 -1 -9 384.421 46.6789 38
 -9 1 9 350.5 43.7369 37
 1 -9 9 254.505 39.0702 36
 -1 -9 9 379.942 46.1287 36
 1 -9 9 363.445 44.3409 35
 -1 -9 9 384.708 43.9379 35
 -9 9 -1 318.514 44.6067 34
 -9 -1 9 328.699 44.3644 47
 9 9 1 274.96 38.8477 33
 9 9 -1 302.336 42.7653 33
 9 -9 -1 313.253 42.6806 50
 9 -9 1 329.263 43.8035 50
 9 -9 1 279.967 39.0557 31
 9 -1 9 311.042 42.1902 30
 1 -9 9 290.53 37.8834 30
 9 -9 1 317.928 39.9989 29
 9 -9 -1 307.922 42.9433 29
 3 9 9 284.816 39.5465 48
 -3 9 9 308.964 40.0833 48
 -3 9 9 209.038 33.5649 27
 -9 3 9 281.418 37.5897 47
 -9 -3 9 311.694 41.7298 47
 3 9 -9 252.541 38.725 46
 9 3 -9 188.874 35.1604 46
 9 -3 -9 283.728 38.6091 46
 3 9 9 258.436 35.0824 45
 9 -9 3 289.416 39.5922 44
 -9 -3 9 254.01 35.2448 43
 -9 -9 3 245.04 37.5498 43
 -3 9 -9 332.827 43.3198 42
 3 9 -9 278.394 39.1884 42
 3 -9 9 286.456 37.9677 41
 -3 -9 9 258.525 37.578 41
 -9 -9 3 317.406 41.1586 41
 -9 9 3 291.542 43.0656 40
 -9 9 -3 257.125 38.3614 40
 -9 3 -9 225.537 38.6281 40
 9 3 9 200.886 32.2559 39
 9 -3 9 220.305 32.933 39
 9 3 -9 238.442 34.5654 38
 9 -3 -9 254.504 36.4574 38
 9 -9 -3 210.944 32.3378 38
 -9 3 9 254.335 38.4441 37
 -9 3 -9 270.089 37.439 37
 3 -9 9 294.677 38.5008 36
 -3 -9 9 307.774 42.2745 36
 -9 -9 3 330.813 44.7961 36
 -9 9 3 225.873 33.1395 48
 9 -3 9 262.879 38.8349 35
 3 -9 9 265.061 39.5266 35
 -3 -9 9 265.126 34.18 35
 -9 9 -3 293.237 39.4827 34
 -3 9 -9 258.605 37.1028 34
 9 9 -3 264.357 39.3244 33
 9 -9 3 283.434 38.9026 50
 -9 3 -9 291.57 41.5529 32
 9 -9 3 241.13 37.9136 31
 9 9 3 274.92 38.5352 28
 9 -9 -3 289.865 38.0488 50
 9 -3 9 354.537 43.8426 30
 3 -9 9 269.449 37.2144 30
 9 -9 -3 273.835 39.0099 29
 9 3 -9 263.685 41.0536 49
 9 -3 -9 233.367 37.7411 49
 9 -5 -9 162.247 29.9178 49
 -9 5 9 201.926 31.5352 27
 -5 9 9 129.063 27.6061 27
 5 9 -9 113.091 26.3405 46
 9 5 -9 198.495 31.8325 46
 9 -5 -9 119.22 24.4794 46
 5 9 9 160.999 26.8775 45
 -9 9 5 145.428 28.6697 27
 9 -9 5 152.989 28.8586 44
 -5 -9 9 125.408 23.2738 43
 -9 -5 9 165.559 30.0885 43
 -9 -9 5 181.992 31.7556 43
 9 5 -9 249.727 36.7145 49
 -5 -9 9 196.074 30.3397 41
 -9 -9 5 165.557 28.4787 41
 -9 9 -5 168.927 29.0829 40
 -9 5 -9 132.016 28.6038 40
 9 5 9 159.385 26.2966 39
 9 5 -9 138.344 26.5666 38
 9 -5 -9 133.132 28.0445 38
 9 -9 -5 125.298 24.5451 38
 5 -9 -9 159.767 26.3625 38
 -9 5 9 208.428 32.9521 37
 -5 -9 9 231.994 34.229 36
 -9 -9 5 152.991 29.1169 36
 9 -5 9 174.558 30.6202 35
 5 -9 9 134.533 28.0493 35
 -9 9 -5 186.662 30.7531 34
 -5 9 -9 176.702 30.6174 34
 9 9 -5 143.535 27.1104 33
 -9 5 -9 166.31 30.6302 32
 9 -9 5 182.321 30.5257 31
 9 -5 9 150.183 28.4562 30
 9 -9 5 132.25 24.5662 30
 5 -9 9 159.474 28.461 30
 9 -9 -5 165.44 28.9418 29
 5 9 9 157.616 27.2494 48
 9 9 5 196.655 29.7635 28
 -10 0 0 9255.74 671.53 26
 -10 0 0 10434.2 296.766 47
 0 0 10 11393.3 287.594 45
 10 0 0 10667.6 288.492 44
 -10 0 0 10861.5 678.93 16
 0 0 10 11425.4 302.256 43
 0 10 0 11105.1 309.82 42
 0 0 -10 11248.5 687.63 15
 10 0 0 9910.85 652.37 24
 0 -10 0 10807.4 697.408 7
 10 0 0 9634.24 659.674 15
 0 0 -10 11233.1 710.276 14
 10 0 0 10320.8 658.902 23
 -10 0 0 10838.6 309.813 37
 0 -10 0 10069.5 645.894 22
 0 10 0 11267.3 711.157 21
 0 10 0 11014 299.585 33
 -10 0 0 10748.2 300.538 32
 10 0 0 11149.2 293.371 31
 0 0 -10 10134.1 690.612 20
 0 10 0 10329.9 662.969 19
 10 0 0 11163.7 297.894 29
 10 0 0 10673.1 665.944 19
 0 10 0 10952.6 295.395 28
 0 0 10 11552.5 732.888 18
 0 0 10 11570.9 304.237 27
 10 0 0 11329.8 302.152 50
 0 10 2 9572.78 259.039 48
 -2 10 0 9604.19 261.798 48
 -2 0 10 9699.14 272.773 47
 -10 0 2 7551.47 623.986 26
 10 2 0 9489.92 272.632 50
 -10 0 2 9064.96 270.906 47
 -10 2 0 8090.24 648.331 26
 -10 -2 0 9236.22 279.405 47
 2 0 -10 9081.29 266.868 46
 0 2 10 9775.35 257.94 45
 2 0 10 9921.68 262.281 45
 -10 -2 0 9204.78 630.286 16
 -10 2 0 7680.48 626.494 25
 -10 2 0 10088.8 644.649 8
 10 2 0 9668.86 264.546 44
 10 0 2 9585.52 269.771 44
 10 -2 0 9613.86 266.534 44
 -10 0 2 8887.41 628.975 16
 -10 2 0 9182.1 630.093 16
 2 0 10 9957.55 279.252 43
 0 2 10 10186 273.472 43
 0 -2 10 9761.92 274.825 43
 -2 0 10 10027.6 274.005 43
 -2 10 0 9652.25 285.519 42
 2 10 0 9201.35 268.464 42
 0 -2 -10 10297.4 682.901 15
 0 10 -2 9407 280.165 42
 2 0 -10 9349.86 632.641 15
 0 2 -10 9707.61 281.244 42
 2 0 10 9232.83 259.967 41
 0 -2 10 9426.24 260.649 41
 -10 0 -2 8894.72 588.747 5
 0 -10 -2 9105.18 652.437 7
 2 -10 0 9246.9 639.553 7
 10 0 -2 8183.15 608.649 24
 10 0 -2 8608.49 628.535 15
 10 -2 0 7987.51 604.71 15
 10 2 0 8942.94 252.975 39
 -2 -10 0 8549.18 616.641 7
 0 -10 2 9426.4 652.893 7
 -2 0 -10 9120.24 637.561 14
 10 0 -2 9363.72 262.32 38
 0 -2 -10 9897.02 666.767 14
 0 2 -10 10167.3 655.144 14
 10 0 -2 8132.17 608.05 23
 2 0 -10 8179.66 617.625 14
 10 -2 0 8958.49 631.776 23
 -10 0 2 9095.45 275.3 37
 -10 2 0 9101.79 281.262 37
 -10 -2 0 9632.92 274.954 37
 -10 0 -2 9485.9 285.727 37
 2 0 10 9458.79 263.247 36
 0 -2 10 9859.28 268.876 36
 0 -10 2 9671.54 652.26 22
 -2 -10 0 9673.52 654.686 22
 0 -10 2 9272.32 261.018 35
 -2 10 0 9611.54 274.573 34
 0 10 2 9012.7 628.919 21
 -2 10 0 9076.74 645.482 21
 0 10 -2 8941.76 631.985 21
 2 10 0 9142.2 626.979 21
 -2 10 0 9521.88 275.338 33
 0 10 -2 9436.8 275.494 33
 2 -10 0 8849.33 613.168 13
 2 10 0 9643.9 272.832 33
 -10 0 2 8864.22 266.629 32
 -10 2 0 9129.89 277.823 32
 -10 0 -2 9499.47 279.639 32
 10 0 2 9697.54 271.172 31
 10 -2 0 10084 270.699 31
 -2 0 -10 9320.18 678.555 20
 0 -2 -10 9403.49 674.117 20
 10 0 2 9559.73 269.799 50
 0 10 2 7753.47 584.49 19
 0 10 -2 8424.62 575.965 19
 2 10 0 8244.36 596.017 19
 10 0 -2 9824.23 273.24 50
 10 2 0 9653.26 270.392 29
 10 0 2 9359.32 261.019 29
 10 2 0 8607.52 596.616 19
 10 0 -2 9185.66 268.758 29
 10 -2 0 9732.65 272.47 29
 10 0 -2 8261.57 601.328 19
 10 -2 0 9262.7 623.335 19
 -2 10 0 9486.1 269.783 28
 0 10 -2 9595.09 265.227 28
 0 -2 10 9143.74 651.39 18
 0 10 2 9828.29 273.065 28
 2 10 0 9767.89 271.203 28
 -2 0 10 9622.58 684.218 18
 10 -2 0 9564.68 274.565 50
 0 -2 10 9540.9 272.15 27
 2 0 10 9423.58 271.832 27
 -2 0 10 9501.13 270.343 27
 0 2 10 9696.25 275.677 27
 -2 10 2 8491.33 244.087 48
 -10 -2 2 6992.29 582.76 26
 -10 2 2 6941.73 608.171 26
 -10 2 2 7941.96 237.157 47
 -10 2 -2 6526.02 561.514 26
 -2 -10 2 8178.32 581.04 16
 2 10 -2 7974.95 253.986 46
 2 2 -10 8335.99 249.579 46
 10 -2 -2 8162.72 248.178 50
 2 2 10 8019.14 234.993 45
 -10 -2 -2 7311.13 542.639 16
 -10 2 -2 6913.61 587.281 25
 -10 -2 2 7897.74 596.236 16
 10 2 2 8232.13 244.972 44
 10 -2 2 8448.88 249.743 44
 -10 2 2 8476.94 612.901 8
 -2 -2 10 8256.53 249.488 43
 -10 2 2 7844.25 598.125 16
 2 -2 10 8759.39 253.907 43
 -2 -2 10 8597.82 247.546 47
 -2 -2 -10 8183.46 613.131 15
 -2 10 -2 8484.89 262.249 42
 2 10 -2 8350.42 250.084 42
 2 -2 -10 7902.14 603.933 15
 -10 -2 -2 7733.4 554.249 5
 -2 2 -10 8452.4 251.284 42
 2 2 -10 7768.01 253.205 42
 -2 2 10 8651.38 252.391 47
 2 -2 10 8544.57 246.806 41
 -2 -10 2 7857.18 233.895 41
 2 -10 -2 8321.82 610.499 7
 -10 2 -2 8354.92 252.998 40
 10 2 -2 7423.93 560.729 24
 10 -2 -2 7886.59 614.336 15
 10 -2 -2 7265.25 581.975 24
 -2 -10 -2 7324.37 569.032 7
 10 2 -2 8242.59 231.865 39
 10 2 -2 7097.32 548.291 15
 10 2 2 8436.27 240.978 39
 2 -10 2 7952.64 582.961 7
 -10 -2 2 7829.84 251.597 47
 -2 -2 -10 7932.33 603.386 14
 10 2 -2 7799.97 239.245 38
 -2 -10 2 7329.03 578.548 7
 -2 2 -10 8765.91 602.421 14
 10 -2 -2 8097.82 236.878 38
 10 2 -2 7177.62 551.128 23
 2 -2 -10 7440.49 588.885 14
 10 -2 -2 6944.3 563.617 23
 2 2 -10 8184.2 603.625 14
 -10 2 2 8117.14 256.884 37
 10 -2 2 7905.55 584.838 23
 -10 2 -2 8300.39 262.262 37
 -10 -2 -2 8111.36 254.733 37
 2 -2 10 8759.58 252.482 36
 2 -10 2 7522.46 562.779 22
 -2 -10 2 7622.76 590.648 22
 -2 -10 -2 9118.62 617.113 22
 -2 10 2 8165.57 252.135 34
 -2 10 -2 7953.55 245.611 34
 -2 10 2 7722.05 599.582 21
 -2 10 -2 6890.67 559.431 21
 2 10 -2 7805.38 592.152 21
 2 -10 -2 7626.97 580.615 13
 -2 10 -2 8214.7 255.086 33
 2 10 -2 8193.51 251.446 33
 -10 2 2 7753.66 250.015 32
 -10 2 -2 7862.65 255.615 32
 10 2 2 8742.54 250.661 31
 -2 2 -10 7782 615.5 20
 10 -2 2 8276.6 246.922 31
 -2 -2 -10 8038.14 638.003 20
 2 10 2 7638.29 580.688 19
 2 10 -2 7979.85 566.274 19
 2 -10 2 8312.99 239.823 30
 10 2 2 7257.42 527.597 19
 10 2 2 8366.93 240.561 29
 10 2 -2 8490.6 250.22 29
 10 2 -2 8292.76 600.436 19
 10 -2 2 8188.13 239.603 29
 10 -2 -2 8404.31 250.873 29
 -2 2 -10 7762.82 567.935 6
 -2 10 -2 7978.82 242.027 28
 -2 10 2 7864.93 242.405 28
 -2 -2 10 7945.08 624.559 18
 2 10 -2 8253.48 239.463 28
 2 10 2 8579.83 250.686 28
 10 2 -2 7931.42 243.453 50
 10 2 2 8102.5 242.129 50
 2 2 10 8236.67 238.241 48
 10 -2 2 8393.16 250.267 50
 2 -2 10 8148.91 250.332 27
 -2 -2 10 8512.23 245.02 27
 2 2 10 8559.64 249.255 27
 -2 2 10 8278.26 251.739 27
 -4 10 0 6336.63 208.894 48
 -4 0 10 6642.55 218.374 47
 -10 0 4 6317.71 214.308 47
 -10 -4 0 5945.9 212.955 47
 0 10 -4 6753.17 220.66 46
 4 0 -10 5993.64 214.189 46
 0 4 10 6471.35 198.594 45
 4 0 10 6488.65 201.015 45
 10 0 4 6275.84 208.551 44
 10 -4 0 6341.19 208.044 44
 4 -10 0 6306.5 207.338 44
 10 -4 0 6305.13 214.904 50
 0 -4 10 6632.47 216.056 43
 -4 0 10 6347.97 209.197 43
 0 10 -4 6223.29 219.249 42
 0 4 -10 6603.58 227.593 42
 4 0 10 6603.45 213.295 27
 4 0 10 6533.35 212.15 41
 0 -4 10 6481.59 211.68 41
 -10 4 0 6194.39 216.232 40
 10 4 0 6412.4 205.284 39
 10 0 4 6326.46 201.211 39
 10 0 -4 6269.67 212.4 38
 -10 0 4 6259.99 214.264 37
 -10 4 0 6382.54 219.376 37
 -10 0 -4 6059.69 221.217 37
 0 -4 10 6703.98 218.368 36
 0 -10 4 6342.81 211.071 35
 -4 10 0 6171.02 219.747 34
 0 4 -10 6416.8 217.015 34
 -4 10 0 6160.85 216.096 33
 0 10 -4 6179.73 213.438 33
 4 10 0 6344.15 213.311 33
 -10 0 4 6369.73 211.31 32
 -10 4 0 6267.84 218.716 32
 -10 0 -4 6679.93 223.832 32
 10 0 4 6465.96 210.983 31
 10 -4 0 6528.04 208.728 31
 4 -10 0 6224.43 201.22 31
 10 0 4 6357.97 205.766 30
 0 -10 4 5987.18 205.914 30
 10 4 0 6349.71 211.334 29
 10 0 -4 6185.74 206.637 29
 10 -4 0 6245.45 210.049 29
 -4 10 0 6252.73 212.251 28
 0 10 4 6197.3 204.976 28
 4 10 0 6395.77 208.6 28
 10 4 0 6502.99 202.999 28
 10 4 0 6270.22 212.497 50
 10 0 -4 6339.7 202.743 50
 0 -4 10 6806.84 215.613 27
 10 0 -4 6098.71 208.118 49
 -4 0 10 6300.33 206.781 27
 0 4 10 6245.78 210.775 27
 0 10 4 5943.67 200.464 48
 0 4 10 6588.82 206.211 48
 2 10 4 5540.65 184.229 48
 -2 10 4 5585.08 193.07 48
 -4 10 2 5579.96 195.173 48
 -4 2 10 5639.95 198.127 47
 -4 -2 10 5814.93 198.165 47
 -10 2 4 5641.12 191.857 47
 -10 -2 4 5065.03 193.519 47
 4 10 -2 5698.18 203.16 46
 -10 -4 2 5347.76 196.974 47
 2 10 -4 5670.25 204.584 46
 2 4 -10 5440.76 195.531 46
 4 2 -10 5333.98 200.471 46
 4 -2 -10 5260.26 197.632 46
 2 10 4 5603.89 179.273 45
 2 4 10 5779.87 188.887 45
 4 2 10 5462.94 186.02 45
 4 -2 10 5545.67 180.966 45
 -4 2 10 5467.63 196.28 27
 10 2 4 5418.66 191.14 44
 10 -2 4 5518.06 195.275 44
 10 -4 2 5729.8 198.357 44
 4 -10 2 5686.79 194.804 44
 4 -10 -2 5422.34 184.292 44
 2 -4 10 5803.5 195.095 43
 -2 -4 10 5558.57 198.256 43
 -4 -2 10 5998.23 205.088 43
 -10 -2 4 5438.38 188.584 43
 -4 10 -2 5410.05 200.461 42
 -2 10 -4 5406.85 202.577 42
 2 10 -4 5556.49 198.086 42
 -2 4 -10 5770.91 203.872 42
 2 4 -10 5475.51 205.79 42
 4 2 -10 5531.27 201.267 42
 4 -2 10 5492.64 194.611 41
 2 -4 10 5320.81 191.684 41
 -2 -4 10 5891.66 193.449 41
 -2 -10 4 5280.56 186.615 41
 -10 4 2 5619.29 197.994 40
 -10 4 -2 5670.57 204.999 40
 -10 2 -4 5317.72 198.509 40
 10 4 -2 5485.27 186.513 39
 10 4 2 5412.63 188.481 39
 10 2 4 5504.53 189.972 39
 4 2 10 5537.95 185.614 39
 10 4 -2 5464.39 191.168 38
 10 2 -4 5320.79 194.257 38
 10 -2 -4 5358.66 193.38 38
 -10 2 4 5583.18 204.686 37
 -10 4 2 5316.47 200.492 37
 -10 4 -2 5387.76 199.931 37
 -10 2 -4 5439.51 204.578 37
 -10 -2 -4 5389.56 202.356 37
 4 -2 10 5424.58 197.143 36
 2 -4 10 5573.38 198.489 36
 -2 -4 10 5326.77 192.002 36
 2 -10 4 5498.7 190.661 35
 4 -2 10 5522.24 196.916 27
 -4 10 2 5768.16 208.808 34
 -4 10 -2 5215.83 197.779 34
 -2 10 -4 5511.08 194.069 34
 -2 4 -10 5702.63 206.673 34
 -4 2 -10 5496.58 202.955 34
 10 -2 -4 5590.38 188.26 50
 10 2 -4 5566.18 188.08 50
 -4 10 2 5763.21 195.958 33
 -4 10 -2 5274.08 200.158 33
 -2 10 -4 5179.29 194.902 33
 2 10 -4 5603.5 199.353 33
 4 10 -2 5662.32 201.784 33
 10 -4 -2 5653.21 199.293 50
 -10 2 4 5520.3 200.906 32
 -10 4 2 5216.04 196.802 32
 -10 4 -2 5363.85 201.174 32
 -10 2 -4 5371.38 203.677 32
 10 -2 4 5785.86 197.911 31
 10 -4 2 5639.43 196.283 31
 4 -10 2 5316.36 188.881 31
 10 -2 4 5396.74 185.554 30
 4 -10 2 5377.71 180.367 30
 2 -10 4 5429.04 190.672 30
 10 4 2 5498.5 189.479 29
 10 4 -2 5674.43 196.63 29
 10 2 -4 5526.08 190.272 29
 10 -2 -4 5360.88 191.21 29
 10 -4 2 5641.52 189.455 29
 10 -4 -2 5355.72 193.695 29
 -4 10 -2 5390.03 193.397 28
 -2 10 -4 5610.9 187.472 28
 -4 10 2 5213.99 189.552 28
 -2 10 4 5245.49 184.151 28
 2 10 4 5480.48 192.843 28
 4 10 2 5508.12 194.987 28
 10 2 4 5512.67 193.572 28
 10 4 2 5579.03 192.396 28
 2 4 10 5575.28 188.656 27
 2 -4 10 5706.2 200.595 27
 10 -2 4 5691.96 189.265 50
 10 -4 2 5796.95 200.857 50
 4 2 10 5870.59 191.451 27
 10 -2 -4 5167.43 192.773 49
 -2 4 10 5491.87 199.062 27
 2 4 10 5347.81 189.921 48
 -4 4 10 3999.51 155.976 47
 -10 -4 4 3575.22 153.629 47
 4 4 -10 3637.36 161.418 46
 4 10 4 3810.07 147.439 45
 4 4 10 3659.12 147.284 45
 4 -4 10 3766.59 138.565 45
 10 -4 4 3730.84 156.177 44
 4 -10 4 3733.64 149.506 44
 -4 -4 10 3921.62 163.184 43
 -10 -4 4 3752.55 158.011 43
 -4 10 -4 3767.16 159.347 42
 4 4 -10 3587.5 158.71 42
 4 -4 10 3784.93 156.089 41
 -4 -10 4 3203.81 144.445 41
 -10 4 4 3745.46 154.399 40
 -10 4 -4 3354.73 156.577 40
 10 4 -4 3914.39 150.923 39
 4 10 -4 3606.68 158.275 46
 10 4 4 3605.54 149.781 39
 10 4 -4 3729.44 158.162 38
 10 -4 -4 3781 153.665 38
 -10 4 4 3514.83 158.461 37
 -10 4 -4 3558.07 154.786 37
 4 -4 10 4069.31 164.158 36
 -4 -4 10 3804.71 152.261 36
 -4 -10 4 3735.82 151.695 36
 10 -4 4 3498.25 145.963 35
 4 -4 10 3592.65 144.234 35
 4 -10 4 3733.09 149.362 35
 -4 10 4 3735.37 155.454 48
 -4 10 -4 3538.38 157.237 34
 -4 4 -10 3646.96 162.615 34
 -4 10 -4 3703.25 159.818 33
 4 10 -4 3585.57 156.782 33
 -10 4 4 3439.95 155.783 32
 -10 4 -4 3563.15 158.382 32
 10 -4 4 3562.12 152.507 31
 4 -10 4 3904.41 155.835 31
 10 -4 4 3678.81 144.936 30
 4 -10 4 3661.73 148.686 30
 10 4 -4 3811.75 150.905 29
 10 -4 -4 3807.85 155.289 29
 -4 10 4 3898.14 149.177 28
 4 10 4 3637.76 152.593 28
 10 4 4 3561.5 150.227 28
 4 -4 10 3687.02 156.997 27
 10 -4 4 3706.83 149.443 50
 4 4 -10 3685.89 155.831 49
 10 -4 -4 3562.07 155.491 49
 4 4 10 3786 155.377 48
 -4 4 10 3754.22 159.474 27
 0 10 6 3224.01 140.232 48
 -6 10 0 3281.54 144.4 48
 -6 0 10 3300.57 147.773 47
 -10 0 6 3315.22 146.66 47
 -10 -6 0 3172.91 139.668 47
 0 10 -6 3278.75 141.982 46
 6 0 -10 2942.52 143.767 46
 6 0 10 3385.15 131.826 45
 10 0 6 3184.81 136.36 44
 10 -6 0 3478.73 143.301 44
 6 -10 0 3214.24 138.662 44
 0 -6 10 3436.5 141.765 43
 0 10 -6 3356.81 151.84 42
 0 6 -10 3374.91 154.599 42
 0 -6 10 3557.36 149.326 41
 0 -10 6 3342.45 139.459 41
 -6 10 0 3142.87 137.854 40
 -10 6 0 3098.91 146.054 40
 10 6 0 3005.91 134.446 39
 10 0 6 3154.26 135.617 39
 6 0 10 3498.71 145.229 39
 10 0 -6 3391.4 148.352 38
 -10 0 6 3265.03 143.101 37
 -10 6 0 2965.85 136.664 37
 0 -6 10 3423.67 149.562 36
 0 -10 6 3381.19 146.112 35
 -6 10 0 3209.16 149.537 34
 0 6 -10 3252.36 144.048 34
 -6 10 0 3264.05 149.55 33
 0 10 -6 3225.03 141.375 33
 6 10 0 3297.3 144.11 33
 -10 0 6 3265.05 142.244 32
 -10 6 0 2981.31 139.132 32
 -10 0 -6 3179.42 148.151 32
 10 0 6 3225.31 135.752 31
 10 -6 0 3444.86 140.655 31
 6 -10 0 3271 135.287 31
 10 0 6 3113.99 138.395 30
 0 -10 6 3579.99 146.293 30
 10 -6 0 3058.82 142.519 50
 10 6 0 3342.66 145.005 29
 10 -6 0 3200.08 141.208 29
 6 10 0 3291.71 139.219 28
 6 -10 0 3014.88 137.589 50
 6 0 10 3218.96 135.587 27
 6 0 -10 3200.15 145.361 49
 10 0 -6 3095.73 145.201 49
 0 6 10 3154.59 136.746 27
 0 6 10 3406.59 142.564 48
 -2 6 10 2988.3 126.816 48
 2 10 6 2695.81 124.376 48
 -2 10 6 2782.7 130.324 48
 -6 10 2 2940.28 135.663 48
 -6 2 10 2954.85 136.152 47
 -6 -2 10 2933.57 135.303 47
 -10 2 6 2737.05 127.972 47
 -10 -2 6 2847.7 136.512 47
 -10 -6 2 2633.34 124.155 47
 6 10 -2 2841.48 131.313 46
 2 10 -6 3076.59 141.024 46
 2 6 -10 2946.29 134.242 46
 6 2 -10 2807.1 139.677 46
 6 -2 -10 2689.07 134.638 46
 6 -10 2 2990.48 133.965 50
 2 10 6 2804.9 117.905 45
 2 6 10 2869.91 123.118 45
 6 2 10 2745.63 121.296 45
 10 2 6 2765.72 125.35 44
 10 -2 6 2921.32 129.034 44
 10 -6 2 3084.11 136.96 44
 6 -10 2 2778.57 128.657 44
 6 -10 -2 3057.93 126.484 44
 -2 -6 10 3044.52 135.083 43
 -6 -2 10 3141.71 138.212 43
 -10 -6 2 2795.77 136.547 43
 -2 10 -6 2811.99 138.488 42
 2 10 -6 2711.44 132.499 42
 -2 6 -10 2739.98 135.187 42
 2 6 -10 2888.82 142.382 42
 6 2 -10 2815.16 129.685 42
 6 -2 10 3023.94 136.583 41
 2 -6 10 2894.81 133.668 41
 -2 -6 10 2867.93 131.794 41
 -2 -10 6 2757.27 128.666 41
 -6 10 2 2719.36 129.427 40
 -10 6 2 2696.6 134.512 40
 -10 6 -2 2745.15 136.56 40
 -10 2 -6 2806.24 136.939 40
 10 6 -2 2863.17 129.666 39
 10 6 2 3036.23 131.525 39
 10 2 6 2664.18 125.847 39
 10 -2 6 2823.99 120.234 39
 6 2 10 2908.03 128.838 39
 6 -2 10 3084.86 134.18 39
 10 6 -2 2894.6 132.737 38
 10 2 -6 2882.17 136.176 38
 10 -2 -6 2705.37 132.73 38
 -10 2 6 2761.98 135.93 37
 -10 6 2 2843.56 134.123 37
 -10 2 -6 3045.66 143.349 37
 2 -6 10 3019.38 138.67 36
 -2 -6 10 3095.65 141.046 36
 -2 -10 6 2922.59 130.818 36
 -6 -10 2 2778.57 129.884 36
 6 -2 10 2857.88 124.9 35
 2 -6 10 2967.2 127.892 35
 2 -10 6 2955.62 135.899 35
 -2 -10 6 3068.06 137.214 35
 -6 10 2 2844.44 139.759 34
 -6 10 -2 2865.69 140.054 34
 -2 10 -6 2873.45 131.519 34
 -2 6 -10 2993.42 141.71 34
 -6 2 -10 2895.21 135.769 34
 -6 10 2 2783.42 130.778 33
 -6 10 -2 2550.35 132.75 33
 -2 10 -6 2872.14 130.944 33
 2 10 -6 2807.65 129.972 33
 6 10 -2 2859.09 135.926 33
 10 6 2 2686.41 124.491 33
 -10 2 6 2724.5 134.482 32
 -10 6 2 2843.76 134.804 32
 -10 6 -2 2728.17 130.206 32
 -10 2 -6 2835.22 140.294 32
 -10 -2 -6 2721.11 128.784 32
 10 -2 6 2778.93 126.906 31
 10 -6 2 2890.29 132.426 31
 6 -10 2 2812.96 128.737 31
 2 -10 6 2904.3 127.332 31
 10 -2 6 2830.55 128.819 30
 6 -2 10 2591.79 119.856 30
 2 -10 6 2959.7 132.156 30
 -2 -10 6 3045.67 131.692 30
 10 6 -2 2774.19 130.414 29
 10 -6 2 2783.69 123.5 29
 10 -6 -2 2875.26 133.669 29
 6 -10 2 2782.04 121.476 29
 2 10 6 2831.52 124.434 28
 6 10 2 2802.64 130.587 28
 10 6 2 2910.4 130.721 28
 10 2 6 2833.3 129.727 28
 10 -6 -2 2897.73 134.532 50
 10 -6 2 2706.5 131.694 50
 6 -10 -2 2910.74 129.292 50
 6 2 -10 2870.78 138.105 49
 10 2 -6 2795.09 134.405 49
 6 -2 -10 2747.18 131.587 49
 10 -2 -6 2554.25 132.296 49
 -6 2 10 2876.06 131.195 27
 -2 6 10 2716.25 130.968 27
 2 6 10 2826.86 130.575 48
 -4 10 6 1868.31 101.593 27
 -4 10 6 2016.45 106.762 48
 -6 10 4 1985.48 106.492 48
 -10 6 4 1958.8 104.749 27
 -6 4 10 1988.4 103.842 47
 -6 -4 10 2132.97 103.626 47
 -10 -4 6 1914.12 105.226 47
 6 10 -4 1782.34 102.997 46
 4 10 -6 2076.61 114.192 46
 4 6 -10 1946.97 110.004 46
 6 4 -10 1940.04 113.022 46
 4 10 6 1999.74 100.609 45
 4 6 10 1951.16 99.9691 45
 6 4 10 1810.91 96.01 45
 10 -4 6 1862.71 100.642 44
 10 -6 4 2089.56 110.205 44
 6 -10 4 2018.77 103.762 44
 -4 -6 10 2202.74 114.558 43
 -6 -4 10 2112.75 112.3 43
 -10 -4 6 1986.63 107.165 43
 -10 -6 4 1948.71 109.423 43
 -4 10 -6 1858.57 104.607 42
 4 6 -10 2116.27 113.21 42
 4 6 -10 2040.85 111.024 49
 6 -4 10 2023.81 106.003 41
 4 -6 10 2041.02 106.998 41
 -4 -6 10 1972.11 101.074 41
 -4 -10 6 1807.27 101.378 41
 -6 -10 4 1818.83 103.545 41
 -6 10 4 1900.7 106.634 40
 -10 6 4 1910.4 107.77 40
 -10 6 -4 1875.99 110.067 40
 -10 4 -6 1837.08 109.894 40
 -6 4 -10 2032.97 112.197 40
 10 6 -4 1759.9 98.3643 39
 10 6 4 1881.54 100.347 39
 10 4 6 1889.43 101.528 39
 6 4 10 1881.29 94.9997 39
 6 -4 10 1978.71 101.672 39
 10 6 -4 1871.48 106.316 38
 10 4 -6 1877.81 107.15 38
 10 -4 -6 1903.36 107.504 38
 10 -6 -4 1848.05 100.646 38
 -10 4 6 2067.71 113.982 37
 -10 6 4 1951.78 109.216 37
 -10 4 -6 1890.61 104.547 37
 4 -6 10 2064.55 110.691 36
 -4 -6 10 2005.99 108.216 36
 -4 -10 6 2049.43 107.995 36
 -6 -10 4 1845.11 103.719 36
 10 -4 6 1910.42 103.462 35
 6 -4 10 1829.15 99.5237 35
 4 -6 10 1899.75 101.586 35
 4 -10 6 1768.32 100.408 35
 -4 -10 6 2062.68 107.181 35
 -6 10 -4 1832.58 108.159 34
 -4 10 -6 1932.82 109.149 34
 -4 6 -10 1840.13 109.463 34
 -6 4 -10 2044.71 112.74 34
 -6 10 -4 1886.9 106.748 33
 -4 10 -6 1962.04 103.941 33
 4 10 -6 2030.94 107.195 33
 6 10 -4 2142.61 113.077 33
 10 6 -4 1817.27 104.18 33
 -10 4 6 2037.35 111.891 32
 -10 6 4 1860.53 105.336 32
 -10 6 -4 1851.49 102.791 32
 -10 4 -6 1977.52 110.89 32
 10 -4 6 1945.03 103.642 31
 10 -6 4 2039.96 108.287 31
 6 -10 4 1994.08 105.721 31
 4 -10 6 2033.23 104.238 31
 10 -4 6 1868.71 101.1 30
 6 -4 10 2000.21 101.068 30
 4 -6 10 1879.46 97.9154 30
 6 -10 4 1791 96.1798 30
 4 -10 6 1927.74 103.259 30
 -4 -10 6 1955.87 98.7194 30
 10 -4 -6 1957.68 100.37 29
 10 -6 -4 1981.98 106.571 29
 4 6 10 1854.23 103.446 48
 6 -10 -4 1871.78 102.373 29
 6 -4 -10 1771.47 100.529 49
 4 10 6 1960.26 102.521 28
 6 10 4 1867.69 103.2 28
 10 6 4 1891.1 104.394 28
 10 4 6 1737.65 98.2088 28
 10 -6 4 1975.81 103.062 50
 6 -10 4 1828.15 98.4467 50
 6 4 -10 1912.29 110.662 49
 10 4 -6 1836.19 105.479 49
 10 -4 -6 1737.51 106.043 49
 -6 4 10 1889.93 106.003 27
 -4 6 10 1820.11 105.12 27
 4 10 6 1916.8 96.0606 48
 -10 6 6 897.189 65.4374 27
 -6 10 6 914.476 66.1379 48
 -6 10 6 965.905 70.8252 27
 6 10 -6 1020.89 73.6123 46
 6 6 -10 1057.17 76.832 46
 6 10 6 1150.04 72.2511 45
 6 6 10 966.535 65.4801 45
 10 -6 6 1020.91 68.8861 44
 6 -10 6 1089.35 67.9409 44
 -6 -6 10 1077.64 75.8757 43
 -10 -6 6 1102.74 76.2532 43
 6 -6 10 1100.29 70.5342 41
 -6 -10 6 981.834 70.414 41
 -10 6 -6 1019.01 76.1122 40
 -6 6 -10 1041.27 71.2058 40
 10 6 6 991.877 65.6605 39
 10 6 -6 924.805 70.1677 38
 10 -6 -6 1054.43 72.731 38
 -10 6 6 1076.38 75.3212 37
 -6 -6 10 1001.8 68.2574 36
 -6 -10 6 893.289 68.3982 36
 -10 -6 6 996.496 69.0131 36
 10 -6 6 914.43 66.0091 35
 6 -6 10 1041.59 71.1981 35
 6 -10 6 1036.42 69.8141 35
 -6 -10 6 957.166 68.0685 35
 -6 10 -6 1020.18 73.6255 34
 -6 6 -10 947.296 71.497 34
 6 10 -6 1020.68 70.5618 33
 10 6 -6 918.548 65.5218 33
 -10 6 6 979.108 72.0084 32
 -10 6 -6 924.852 66.8093 32
 10 -6 6 1102.14 72.7253 31
 6 -10 6 1053.88 70.4873 31
 10 -6 6 1071.95 69.5394 30
 6 -6 10 1044.08 68.6048 30
 6 -10 6 950.85 67.2676 30
 10 -6 -6 1088.97 69.1134 29
 6 -10 -6 1034.79 66.9217 29
 6 10 6 1019.78 69.3273 28
 10 6 6 930.921 66.5895 28
 6 6 -10 1119.29 78.0954 49
 10 6 -6 899.487 66.8903 49
 10 -6 -6 1105.03 78.7182 49
 -6 6 10 989.658 71.9617 27
 0 10 8 1262.48 80.9475 48
 -8 10 0 1528.06 89.1631 48
 -8 0 10 1524.71 91.2553 47
 -10 0 8 1413.98 87.7572 47
 10 0 -8 1293.49 80.7448 46
 8 0 -10 1202.62 83.1668 46
 10 -8 0 1272.12 79.9237 44
 8 -10 0 1284.46 79.1367 44
 -10 -8 0 1201.91 81.6274 43
 0 10 -8 1289.48 86.002 42
 0 8 -10 1164.76 83.9511 42
 0 -8 10 1427.38 86.8619 41
 0 -10 8 1237.21 79.4133 41
 -8 10 0 1230.77 82.3879 40
 -10 8 0 1266.31 85.7468 40
 -10 0 -8 1294.8 83.1182 40
 -8 0 -10 1344.81 87.6748 40
 10 8 0 1374.55 81.4845 39
 10 0 8 1410.42 82.8436 39
 8 0 10 1461.25 85.3155 39
 8 0 -10 1371.12 80.7592 38
 10 0 -8 1302.9 83.9844 38
 0 -8 10 1302.38 85.5331 36
 0 -10 8 1389.41 83.3843 36
 0 -8 10 1392.63 80.9742 35
 0 -10 8 1394.64 85.9425 35
 -8 10 0 1375.4 88.1211 34
 8 10 0 1333.07 83.2863 33
 10 8 0 1232.41 81.5485 33
 -10 0 -8 1223.56 84.9071 32
 10 -8 0 1311.58 78.1692 31
 8 -10 0 1296.55 76.0473 31
 0 -10 8 1306.74 78.7825 30
 10 -8 0 1361.27 83.338 29
 8 -10 0 1212.93 78.3693 29
 8 10 0 1270.56 76.1284 28
 10 0 8 1168.96 72.7277 28
 10 -8 0 1290.77 84.5375 50
 8 -10 0 1236.52 81.2715 50
 8 0 -10 1231.69 84.8212 49
 10 0 -8 1264.8 85.674 49
 0 8 10 1342.34 83.8051 48
 -2 8 10 1034.37 70.4784 48
 -2 10 8 1159.98 76.9329 48
 -8 10 2 1147.23 76.689 48
 -8 2 10 1138.91 77.9356 47
 -8 -2 10 1221.77 80.0254 47
 -10 2 8 1054.35 73.5759 47
 -10 -2 8 1184.93 80.3 47
 2 10 -8 1188.43 77.6232 46
 10 2 -8 1120.95 74.5903 46
 8 2 -10 1037.51 78.1301 46
 10 -2 -8 1004.93 69.6055 46
 8 -2 -10 1102.08 77.5064 46
 2 8 10 1087.87 66.5831 45
 -2 8 10 1001.71 69.1283 27
 10 -8 2 1144.38 76.1799 44
 8 -10 2 1155.66 76.4216 44
 -8 -2 10 1138.4 73.7422 43
 -8 -10 2 903.397 66.1122 43
 -10 -8 2 1173.95 79.1856 43
 -2 10 -8 1096.04 77.8202 42
 2 10 -8 1168.73 78.9934 42
 -2 8 -10 1087.67 76.1813 42
 2 8 -10 1153.37 80.9534 42
 2 -8 10 1192 77.7691 41
 2 -10 8 1172.49 73.2839 41
 -2 -8 10 1218.79 79.0332 41
 -2 -10 8 1140.6 76.1432 41
 -8 10 2 1087.19 76.8529 40
 -10 8 2 975.469 75.492 40
 -8 10 -2 1003.75 71.075 40
 -10 8 -2 1080.5 78.7278 40
 -10 2 -8 1266.49 84.68 40
 -8 2 -10 1064.67 78.6624 40
 -8 -2 -10 1123.21 76.3342 40
 10 8 -2 1046 71.9772 39
 10 8 2 1068.74 70.2304 39
 10 2 8 1239.04 77.3404 39
 10 -2 8 1064.59 68.193 39
 8 2 10 1293.02 78.3361 39
 8 -2 10 1122.67 73.7828 39
 10 8 -2 1189.26 77.3649 38
 10 2 -8 1202.25 79.0889 38
 8 -2 -10 1072.12 71.556 38
 10 -2 -8 1178.32 78.3574 38
 -10 2 8 1348.69 84.7568 37
 -10 2 -8 1090.06 78.0989 37
 2 -8 10 1266.5 80.1175 36
 -2 -8 10 1176.98 79.2374 36
 -2 -10 8 1259.71 79.1094 36
 -8 -10 2 1161.57 77.406 36
 2 -8 10 1314.13 80.1054 35
 2 -10 8 1203.47 79.3073 35
 -2 -10 8 1245.24 78.0968 35
 -8 10 -2 998.172 74.969 34
 -2 10 -8 1048.81 71.3984 34
 -2 8 -10 1120.49 77.4678 34
 8 10 -2 1102.1 77.7935 33
 10 8 -2 1143.84 79.0331 33
 -10 2 8 1178.01 79.8792 32
 -10 2 -8 1200.1 81.8142 32
 -10 -2 -8 1159.99 76.4742 32
 10 -8 2 1203.29 77.5405 31
 8 -10 2 1038.96 71.6971 31
 10 -2 8 1265.51 80.2555 30
 8 -2 10 1125.18 72.2163 30
 2 -10 8 1157.34 75.3606 30
 10 -8 -2 1090.64 75.6584 29
 8 -10 -2 1085.45 74.7733 29
 8 10 2 1081.19 72.9723 28
 10 8 2 1130.24 74.1811 28
 10 2 8 1002.44 66.8429 28
 10 -8 -2 1279.18 80.2271 50
 10 -8 2 1178.54 78.1093 50
 8 -10 -2 1192.7 75.9928 50
 8 -10 2 1113.76 75.2245 50
 8 2 -10 1018.76 76.8714 49
 10 2 -8 1110.23 80.005 49
 8 -2 -10 1082.57 76.9627 49
 10 -2 -8 1106.94 79.2901 49
 2 8 10 1081.97 74.1607 48
 2 10 8 1074.37 73.0129 48
 -4 10 8 789.433 59.6244 48
 -8 10 4 801.97 58.1519 48
 -10 8 4 726.716 58.4193 27
 -8 10 4 743.199 60.2492 27
 -8 -4 10 908.028 62.3918 47
 -10 -4 8 813.422 60.6517 47
 -8 4 10 831.21 59.7919 27
 4 10 -8 775.735 61.7784 46
 4 8 -10 763.261 60.7808 46
 10 4 -8 748.327 57.1928 46
 8 4 -10 783.539 63.6029 46
 8 -4 -10 623.598 55.1481 46
 4 10 8 827.199 56.6228 45
 4 8 10 757.999 55.0896 45
 8 4 10 766.776 53.093 45
 10 -8 4 840.345 62.9131 44
 8 -10 4 837.157 61.513 44
 -4 -8 10 805.314 58.3796 43
 -8 -4 10 912.793 65.2182 43
 -10 -4 8 827.113 61.5756 43
 -8 -10 4 706.938 54.894 43
 -10 -8 4 714.247 60.5642 43
 -4 10 -8 786.854 58.7284 42
 4 8 -10 740.106 58.2388 42
 4 -8 10 724.026 56.0848 41
 -4 -8 10 860.17 61.2959 41
 -4 -10 8 776.662 60.9318 41
 -8 -10 4 752.01 59.4346 41
 -10 -8 4 722.291 55.5172 41
 -8 10 4 825.798 64.0431 40
 -10 8 4 823.328 64.5559 40
 -10 8 -4 722.569 60.2633 40
 -10 4 -8 739.123 62.7481 40
 -8 4 -10 836.187 65.7271 40
 10 8 4 721.924 53.6461 39
 10 4 8 819.954 58.7433 39
 8 4 10 798.324 56.0011 39
 8 -4 10 812.407 56.0748 39
 10 8 -4 771.314 61.2046 38
 10 4 -8 721.534 58.72 38
 8 -4 -10 805.715 58.601 38
 10 -4 -8 793.771 61.6368 38
 10 -8 -4 615.737 51.4288 38
 -10 4 8 797.51 63.3143 37
 4 -8 10 813.858 60.1493 36
 -4 -8 10 904.281 65.8098 36
 -4 -10 8 737.91 60.3685 36
 -8 -10 4 849.67 64.6125 36
 -10 -8 4 841.791 64.678 36
 8 -4 10 726.701 56.7418 35
 4 -8 10 844.26 62.0074 35
 4 -10 8 847.887 63.2041 35
 -4 -10 8 886.461 60.7649 35
 -8 10 -4 764.637 61.7132 34
 -4 10 -8 771.18 61.7334 34
 -4 8 -10 746.78 61.5706 34
 8 10 -4 724.689 59.799 33
 10 8 -4 723.121 59.5876 33
 -10 4 -8 777.882 62.5728 32
 10 -8 4 837.706 61.9111 31
 8 -10 4 691.674 57.0327 31
 10 -4 8 795.095 60.3702 30
 8 -4 10 795.205 58.9188 30
 4 -8 10 820.609 57.89 30
 4 -10 8 791.802 59.6042 30
 10 -8 -4 830.184 61.9837 29
 8 -10 -4 755.246 58.1091 29
 8 10 4 809.269 60.2681 28
 10 8 4 794.736 60.3504 28
 10 4 8 677.849 51.9836 28
 10 -8 4 822.52 59.1665 50
 8 -10 4 765.644 56.7215 50
 4 8 -10 825.781 63.1273 49
 8 4 -10 758.855 62.3643 49
 10 4 -8 866.204 65.5601 49
 8 -4 -10 662.765 56.6742 49
 10 -4 -8 722.463 61.4245 49
 -4 8 10 731.638 58.0364 27
 4 8 10 804.886 60.0167 48
 4 10 8 778.692 56.5592 48
 -4 10 8 763.276 58.1919 27
 -10 8 6 404.014 39.4159 27
 -8 10 6 382.192 38.9102 27
 -8 6 10 379.717 38.9416 27
 8 10 -6 413.984 38.5502 46
 6 10 -8 394.106 40.0755 46
 6 8 -10 446.649 41.9109 46
 8 6 -10 433.611 41.8105 46
 8 -6 -10 355.531 36.8015 46
 6 10 8 415.09 36.8166 45
 6 8 10 436.21 37.9879 45
 8 6 10 417.223 36.6125 45
 10 -8 6 438.915 38.4952 44
 8 -10 6 471.916 39.1479 44
 -6 -8 10 410.862 39.11 43
 -8 -6 10 478.994 43.6281 43
 -10 -6 8 484.438 44.1141 43
 -8 -10 6 380.89 35.4389 43
 -10 -8 6 407.564 40.1296 43
 -6 -10 8 454.761 41.1492 41
 -8 -10 6 404.476 38.4813 41
 -10 8 -6 392.821 39.5305 40
 -10 6 -8 469.545 44.8461 40
 -8 6 -10 419.479 40.6809 40
 10 6 8 385.693 34.3289 39
 10 8 -6 445.787 41.467 38
 10 6 -8 430.695 39.4985 38
 10 -6 -8 468.034 42.0474 38
 8 -6 -10 430.728 38.3898 38
 10 -8 -6 392.382 38.1321 38
 8 -10 -6 414.018 39.5867 38
 6 -10 -8 429.196 41.0845 38
 -10 6 8 390.935 40.0492 37
 -6 -8 10 467.133 42.1447 36
 -6 -10 8 435.58 41.3929 36
 -8 -10 6 431.341 41.1441 36
 -10 -8 6 432.679 40.3174 36
 10 -6 8 380.6 38.235 35
 10 -8 6 415.428 36.3724 35
 8 -6 10 421.382 39.9149 35
 8 -10 6 378.869 35.1468 35
 6 -8 10 384.258 38.0895 35
 6 -10 8 464.168 41.8365 35
 -8 -10 6 336.594 33.3844 35
 -8 10 -6 406.866 40.904 34
 -6 10 -8 402.428 39.735 34
 -6 8 -10 471.597 43.9264 34
 -8 6 -10 375.314 37.1565 34
 8 10 -6 366.606 36.1008 33
 10 8 -6 358.463 35.0923 33
 10 -8 6 427.676 39.3304 31
 8 -10 6 435.466 39.886 31
 10 -6 8 410.424 38.7633 30
 8 -6 10 418.579 39.038 30
 10 -8 6 414.234 35.6396 30
 6 -8 10 427.838 38.3663 30
 8 -10 6 400.794 36.3169 30
 6 -10 8 464.347 41.0678 30
 10 -8 -6 368.466 35.1961 29
 8 -10 -6 414.354 36.8216 29
 8 10 6 387.165 36.8796 28
 10 8 6 386.942 36.6513 28
 10 6 8 404.913 35.7688 28
 6 8 -10 382.598 40.7007 49
 8 6 -10 438.421 43.3635 49
 10 6 -8 374.076 38.4638 49
 10 -6 -8 394.767 40.4519 49
 10 -8 -6 426.953 42.0907 49
 8 -6 -10 320.267 35.3568 49
 -6 8 10 386.361 39.3692 27
 -6 10 8 461.722 41.3526 27
 -10 10 0 460.912 40.6262 48
 -10 0 10 477.878 42.9891 47
 10 0 -10 383.669 38.9403 46
 10 -10 0 446.42 38.6971 44
 -10 -10 0 378.581 35.954 43
 0 10 -10 428.484 42.0062 42
 0 -10 10 435.072 39.9285 41
 -10 10 0 456.754 42.2951 40
 -10 0 -10 409.274 39.6268 40
 10 0 10 433.802 39.2874 39
 10 0 -10 499.558 41.1605 38
 -10 0 -10 385.381 40.2756 37
 0 -10 10 460.08 40.8713 36
 0 -10 10 454.121 40.0039 35
 10 10 0 438.957 38.9323 33
 -10 0 -10 414.972 41.0981 32
 10 -10 0 435.709 37.4819 29
 10 -10 0 444.381 40.9228 50
 10 0 -10 413.463 41.4761 49
 0 10 10 417.867 39.6776 48
 -10 10 -2 352.822 36.7556 48
 -10 2 10 389.095 36.8323 47
 -10 -2 10 375.984 38.1022 47
 10 2 -10 384.803 36.7304 46
 10 -10 2 420.656 38.8605 44
 -10 -10 2 329.866 33.8365 43
 -2 10 -10 336.998 36.1836 42
 2 10 -10 325.891 35.8776 42
 2 -10 10 423.644 37.0714 41
 -2 -10 10 432.993 39.0268 41
 -10 -10 2 347.235 35.8299 41
 -10 10 2 325.893 36.4331 40
 -10 10 -2 336.138 35.0631 40
 -10 2 -10 363.32 38.335 40
 10 2 10 325.122 34.402 39
 10 -2 10 366.626 33.5229 39
 10 -2 -10 321.481 33.1377 38
 10 -10 -2 348.049 34.0874 50
 -2 -10 10 434.584 39.5419 36
 -10 -10 2 358.779 37.6095 36
 2 -10 10 398.366 36.891 35
 10 10 -2 337.167 35.4692 33
 -10 2 -10 359.247 38.1493 32
 10 -10 2 399.637 36.6096 31
 10 -10 -2 401.852 37.7841 29
 10 10 2 329.087 32.6749 28
 10 -10 2 371.511 36.3188 50
 10 2 -10 325.678 35.8306 49
 10 -2 -10 360.534 37.0337 49
 2 10 10 398.465 36.9124 48
 -2 10 10 382.358 36.4631 48
 -1 11 1 1170.78 78.3452 48
 -11 1 1 1091.84 80.6834 47
 -11 -1 1 1252.56 90.5828 47
 -11 1 -1 1037.17 79.4618 47
 -11 -1 -1 1225.96 90.5095 47
 1 1 11 1298.75 82.846 45
 -1 1 11 1401.72 83.6999 45
 1 -1 11 1254.38 81.0669 45
 -1 -1 11 1179.29 79.6301 45
 11 1 -1 1230.03 80.7472 44
 11 1 1 1175.2 82.3825 44
 11 -1 -1 1319.51 84.5029 44
 11 -1 1 1283.56 86.0557 44
 1 1 11 1312.75 89.4672 43
 1 -1 11 1404.91 92.2886 43
 -1 1 11 1339.96 87.5198 43
 -1 -1 11 1274.61 88.5552 43
 -1 11 -1 1284.14 93.5385 42
 1 11 -1 1229.32 88.0301 42
 -1 1 -11 1194.21 86.6587 42
 1 1 -11 1276.09 91.891 42
 1 -1 11 1142.51 78.0935 41
 11 1 1 1171.04 75.9789 39
 -11 1 1 1229.55 91.9074 37
 -11 -1 1 1176.33 87.0417 37
 -11 1 -1 1186.72 92.5992 37
 -11 -1 -1 1112.59 87.6264 37
 1 -1 11 1236.46 82.4997 36
 -1 11 1 1199.14 83.8603 33
 -1 11 -1 1302.77 90.0203 33
 1 11 1 1218.53 84.1584 33
 1 11 -1 1294.88 89.6308 33
 -11 1 1 1021.41 81.7538 32
 -11 -1 -1 1115.12 82.1316 32
 -11 1 -1 1218.23 89.5866 32
 11 1 1 1253.55 85.4737 31
 11 -1 -1 1256.12 81.5851 31
 11 -1 1 1271.08 85.6164 31
 1 -11 1 1259.52 82.0959 30
 11 1 1 1222.82 83.7307 29
 11 1 -1 1238.26 86.0327 29
 11 -1 1 1359.66 88.2974 29
 11 -1 -1 1235.84 86.0506 29
 -1 11 -1 1177.62 83.219 28
 -1 11 1 1225.84 85.0108 28
 1 11 -1 1170.85 82.2644 28
 1 11 1 1176.62 83.8062 28
 11 1 -1 1234.38 87.1763 50
 11 1 1 1199.23 84.818 50
 11 -1 -1 1255.77 88.2676 50
 11 -1 1 1230.62 87.167 50
 1 -1 11 1396.4 91.8957 27
 -1 -1 11 1076.38 80.6711 27
 1 1 11 1293.96 89.697 27
 -1 1 11 1249.34 88.7163 27
 -1 11 3 997.278 73.388 48
 -3 11 1 960.988 73.6824 48
 -3 11 -1 965.709 71.6938 48
 -3 1 11 1028.18 80.0216 47
 -3 -1 11 1035.36 78.6644 47
 -11 1 3 920.901 74.5705 47
 -11 -1 3 1013 80.358 47
 -11 -3 1 890.879 77.363 47
 -11 -3 -1 794.249 73.9406 47
 3 1 -11 845.378 73.2747 46
 3 -1 -11 851.063 72.3229 46
 1 3 11 932.472 69.4424 45
 -1 3 11 1042.8 69.8769 45
 3 1 11 927.951 71.8179 45
 3 -1 11 1031.89 73.23 45
 11 1 3 975.923 75.3913 44
 11 -1 3 832.755 71.4438 44
 11 -3 -1 982.977 71.314 44
 11 -3 1 949.469 74.328 44
 1 -3 11 1025.06 79.5192 43
 -3 1 11 963.596 72.841 43
 -1 -3 11 1010.4 79.2221 43
 -3 -1 11 1070.7 80.3232 43
 -3 11 -1 876.422 76.9792 42
 -1 11 -3 858.695 76.6968 42
 1 11 -3 1050.33 81.5275 42
 -1 3 -11 896.818 76.2968 42
 1 3 -11 937.316 81.0725 42
 3 1 -11 988.783 80.8954 42
 3 -1 11 1017.1 75.9454 41
 1 -3 11 984.566 74.9681 41
 -1 -3 11 940.412 71.9667 41
 -11 3 -1 946.158 75.052 40
 11 3 -1 953.375 70.1368 39
 11 3 1 866.195 69.9954 39
 11 1 3 916.054 70.2886 39
 11 1 -3 852.729 69.9514 38
 11 -1 -3 782.802 68.9722 38
 -11 -1 3 958.827 76.4426 37
 -11 1 3 934.415 79.1903 37
 -11 3 1 900.939 78.4885 37
 -11 3 -1 969.838 81.491 37
 -11 1 -3 948.458 82.3339 37
 -11 -1 -3 841.75 76.4458 37
 3 -1 11 902.228 72.41 36
 1 -3 11 975.138 75.4043 36
 -1 -3 11 1092.78 77.9056 36
 1 -11 3 1025.81 75.1905 35
 -1 -11 3 1015.69 75.4459 35
 -3 11 1 907.199 76.0528 34
 -3 11 -1 1021.22 79.5779 34
 -1 3 -11 990.771 80.709 34
 -3 11 1 889.292 72.5517 33
 -3 11 -1 1024.76 80.6619 33
 -1 11 -3 922.785 77.2207 33
 1 11 -3 860.719 74.123 33
 3 11 1 985.331 74.3648 33
 3 11 -1 975.65 77.2798 33
 -11 1 3 1058.61 81.6872 32
 -11 3 1 782.363 73.2925 32
 -11 3 -1 751.331 72.4269 32
 -11 -1 -3 958.254 76.5668 32
 -11 1 -3 897.391 78.4865 32
 11 1 3 938.615 74.4181 31
 11 -1 3 900.008 73.7719 31
 11 -3 1 877.338 71.8979 31
 3 -11 -1 926.485 69.283 31
 3 -11 1 921.462 72.6586 31
 1 -11 3 953.501 73.4818 30
 11 3 -1 1010.89 78.1382 50
 11 3 1 896.011 71.3072 29
 11 3 -1 954.092 75.8846 29
 11 1 -3 904.797 73.7606 29
 11 -1 -3 1079.39 79.8825 29
 11 -3 1 883.435 71.5514 29
 11 -3 -1 937.749 76.6714 29
 -3 11 -1 1126.85 82.4696 28
 -1 11 -3 1069.02 76.8178 28
 -3 11 1 1012.45 77.9569 28
 -1 11 3 818.003 68.3869 28
 1 11 3 906.176 72.7429 28
 3 11 -1 1066.44 76.3656 28
 3 11 1 961.174 74.8645 28
 11 3 1 861.994 69.3644 28
 11 3 1 904.365 73.4386 50
 11 1 -3 928.533 72.67 50
 11 1 3 1021.37 73.9093 50
 11 -1 -3 938.782 73.2559 50
 11 -1 3 956.068 73.6049 50
 11 -3 -1 947.337 76.3855 50
 11 -3 1 873.662 73.457 50
 1 -3 11 992.167 77.591 27
 3 -1 11 1009.66 78.7107 27
 -1 -3 11 999.852 74.9455 27
 3 1 11 1054.94 78.5918 27
 -3 -1 11 992.163 75.6248 27
 1 3 11 897.484 74.5832 27
 -3 1 11 947.956 76.0638 27
 -1 3 11 910.625 76.0397 27
 1 3 11 949.587 70.6487 48
 -3 11 3 817.698 67.557 48
 -11 -3 3 728.87 69.0739 47
 3 11 -3 798.008 72.1482 46
 3 3 -11 745.948 68.5556 46
 3 -3 -11 627.129 61.9319 46
 3 3 11 857.061 67.4526 45
 3 -3 11 827.735 63.82 45
 11 -3 3 805.95 70.4722 44
 3 -11 3 839.981 69.6116 44
 -3 -3 11 885.251 73.0632 43
 -11 -3 3 639.668 62.9612 43
 -3 3 11 689.514 66.8066 27
 -3 11 -3 695.927 68.2852 42
 3 3 -11 803.267 72.9438 42
 3 -3 11 721.371 65.617 41
 -3 -11 3 603.48 58.4087 41
 -11 3 -3 664.541 64.8422 40
 11 3 -3 730.593 61.1778 39
 11 3 3 657.371 60.6151 39
 11 3 -3 759.938 67.0612 38
 -3 -3 11 791.183 66.5465 47
 11 -3 -3 730.122 62.6273 38
 -11 3 3 652.495 67.3107 37
 -11 3 -3 706.97 68.4992 37
 -11 -3 -3 720.334 66.3281 37
 3 -3 11 743.608 68.0475 36
 -3 11 -3 656.133 63.7912 34
 -3 3 -11 866.135 76.0141 34
 11 -3 -3 741.455 65.3241 50
 -3 11 -3 778.719 71.0891 33
 3 11 -3 725.407 68.0841 33
 -11 3 3 739.261 70.4992 32
 -11 3 -3 647.073 67.1495 32
 11 -3 3 689.703 64.6738 31
 3 -11 3 728.381 65.0948 31
 3 -11 3 797.48 65.6589 30
 11 3 3 696.436 60.082 29
 11 3 -3 768.883 65.8459 29
 11 -3 -3 709.886 64.7255 29
 -3 11 -3 730.404 64.7011 28
 11 -3 3 664.159 62.52 50
 -3 11 3 796.413 67.2043 28
 3 11 3 795.96 68.9179 28
 11 3 3 731.795 62.9834 50
 11 3 3 667.668 62.0555 28
 3 -3 11 776.044 68.7388 27
 3 3 11 761.862 64.2393 27
 1 11 5 472.168 50.4882 48
 -1 11 5 574.924 56.4838 48
 -5 11 1 613.054 60.1546 48
 -5 11 -1 595.048 57.8149 48
 -5 1 11 621.485 62.0341 47
 -5 -1 11 553.482 59.5331 47
 -11 -1 5 595.087 61.1895 47
 -11 1 5 456.927 54.1509 47
 -11 -5 1 488.093 55.7836 47
 -11 -5 -1 519.312 57.5046 47
 1 11 -5 587.968 59.5234 46
 5 1 -11 693.038 66.3148 46
 5 -1 -11 480.076 58.1893 46
 1 5 11 541.751 52.168 45
 5 1 11 515.426 52.032 45
 5 -1 11 425.687 46.0215 45
 11 1 5 542.417 56.3294 44
 11 -5 -1 568.364 54.1501 44
 11 -5 1 547.221 57.8902 44
 5 -11 1 678.959 60.9168 44
 5 -11 -1 587.568 56.8856 44
 1 -11 5 551.408 53.2947 44
 11 -1 5 478.513 52.7584 44
 1 -5 11 575.25 56.5136 43
 -1 -5 11 564.47 58.0149 43
 -5 -1 11 637.658 60.175 43
 -1 11 -5 572.762 61.5546 42
 1 11 -5 620.108 62.4617 42
 -1 5 -11 550.091 61.0938 42
 1 5 -11 541.486 61.2605 42
 5 1 -11 472.318 54.2673 42
 5 -1 11 644.777 60.2183 41
 1 -5 11 595.405 58.9746 41
 -1 -5 11 585.031 56.298 41
 -1 -11 5 492.724 51.4487 41
 -11 5 1 516.074 58.7064 40
 -11 5 -1 457.244 54.8751 40
 11 5 -1 622.78 58.5698 39
 11 5 1 593.916 55.9685 39
 11 1 5 537.181 54.6114 39
 5 1 11 556.996 55.4681 39
 5 -1 11 618.81 59.5088 39
 11 -1 5 384.57 44.8719 39
 11 1 -5 594.3 59.9199 38
 11 -1 -5 539.54 57.4106 38
 11 5 -1 468.75 48.2624 38
 -11 5 -1 513.907 56.8625 37
 -11 1 -5 633.151 66.1179 37
 -11 1 5 529.898 57.6585 37
 -11 5 1 533.756 58.7467 37
 -11 -1 -5 431.504 56.568 37
 1 -5 11 528.5 57.2684 36
 -1 -5 11 580.161 59.0329 36
 1 -11 5 602.723 59.1283 35
 -1 -11 5 531.931 55.7096 35
 -5 11 1 624.883 66.8011 34
 -1 5 -11 551.181 60.0006 34
 -5 1 -11 536.027 57.0631 34
 -5 -1 -11 498.205 55.3787 34
 -5 11 -1 540.371 58.9252 34
 -5 11 1 485.706 54.0506 33
 -5 11 -1 548.048 59.3908 33
 -1 11 -5 566.146 58.6151 33
 1 11 -5 565.888 57.9094 33
 5 11 1 569.009 55.2724 33
 5 11 -1 566.038 57.8016 33
 -11 5 1 584.051 61.4103 32
 -11 5 -1 487.265 56.7643 32
 -11 1 5 498.896 54.4238 32
 -11 -1 -5 517.938 56.9188 32
 -11 1 -5 528.496 59.6876 32
 11 -1 5 560.809 57.3202 31
 11 -5 1 550.041 56.8872 31
 5 -11 1 528.645 53.1626 31
 1 -11 5 685.326 62.5559 30
 -1 -11 5 672.336 61.5667 30
 11 5 1 544.024 55.9981 29
 11 5 -1 519.089 56.2142 29
 11 1 -5 507.64 52.1735 29
 11 -1 -5 551.63 55.0706 29
 11 -5 1 559.987 56.7115 29
 11 -5 -1 525.117 57.1178 29
 5 -1 11 559.588 56.8744 27
 -5 11 -1 540.137 58.0661 28
 -5 11 1 564.499 57.9349 28
 -1 11 5 540.641 52.4251 28
 1 11 5 651.667 58.7975 28
 5 11 -1 560.679 53.9028 28
 11 5 1 548.002 54.4426 28
 11 1 5 555.882 57.9592 28
 11 -5 -1 569.509 58.4971 50
 11 -5 1 546.444 59.2042 50
 5 11 1 475.598 52.32 28
 1 -5 11 566.341 55.9765 27
 5 1 11 505.163 51.1208 27
 11 1 -5 502.9 53.1536 49
 1 5 11 553.656 55.2123 27
 -5 1 11 510.672 54.9225 27
 -1 5 11 536.684 58.0597 27
 11 -1 -5 466.727 52.7309 49
 1 5 11 525.117 55.3797 48
 -3 11 5 496.849 53.4551 48
 3 5 11 385.834 47.292 48
 -5 3 11 447.208 51.8704 27
 -3 5 11 361.334 47.8523 27
 -5 11 3 423.593 50.3739 48
 -5 3 11 454.076 51.8964 47
 -5 -3 11 478.44 50.7799 47
 -11 -3 5 374.855 49.6855 47
 -11 -5 3 442.519 51.4854 47
 5 11 -3 469.852 54.3628 46
 3 11 -5 333.808 46.7029 46
 3 5 -11 399.386 47.8177 46
 5 3 -11 421.282 53.966 46
 5 -3 -11 391.802 50.8217 46
 3 5 11 411.716 45.67 45
 5 3 11 361.84 43.9464 45
 3 -5 11 401.72 43.4942 45
 5 -11 3 492.772 52.9558 44
 11 -3 5 385.361 48.3703 44
 11 -5 3 441.453 51.7069 44
 3 -11 5 441.879 46.7592 44
 -3 -5 11 430.393 50.5378 43
 -5 -3 11 398.611 49.2127 43
 -11 -3 5 395.25 48.2067 43
 -11 -5 3 455.246 53.5995 43
 -3 11 -5 464.23 54.1183 42
 3 11 -5 301.878 41.3066 42
 3 5 -11 434.375 54.1592 42
 5 3 -11 427.128 49.6647 42
 5 -3 11 529.289 55.1776 41
 -3 -5 11 465.61 48.4872 41
 -5 -11 3 507.808 54.1465 41
 3 -5 11 398.675 48.8479 41
 -3 -11 5 430.966 47.9978 41
 -11 5 3 484.972 53.0859 40
 -11 5 -3 393.865 50.5057 40
 -11 3 -5 417.761 52.4337 40
 11 5 -3 492.451 49.8444 39
 11 5 3 506.583 51.9656 39
 5 3 11 472.444 47.4934 39
 11 3 5 458.195 50.1643 39
 11 5 -3 390.067 48.532 38
 11 3 -5 414.577 49.2179 38
 11 -3 -5 406.017 49.5263 38
 -11 3 5 444.902 54.7854 37
 -11 5 3 362.335 49.5523 37
 -11 5 -3 390.05 49.8371 37
 -11 3 -5 405.413 51.4057 37
 -11 -3 -5 356.469 47.4792 37
 -3 -11 5 465.152 49.0986 36
 3 -5 11 416.516 50.6746 36
 -3 -5 11 444.35 50.0982 36
 -5 -11 3 400.484 45.9182 36
 3 -11 5 443.292 50.429 35
 -3 -11 5 520.818 54.7077 35
 -5 11 -3 439.091 52.0398 34
 -3 11 -5 441.045 50.624 34
 -3 5 -11 401.194 51.4385 34
 -5 3 -11 442.431 54.7597 34
 -5 11 -3 516.112 56.1385 33
 -3 11 -5 464.672 52.6097 33
 3 11 -5 494.3 54.3072 33
 5 11 -3 435.018 51.3986 33
 -11 3 5 486.034 55.4812 32
 -11 5 3 400.353 50.2271 32
 -11 5 -3 370.135 48.4358 32
 -11 3 -5 432.668 53.7979 32
 3 -11 5 491.44 52.9178 31
 11 -3 5 402.226 48.5242 31
 11 -5 3 428.098 49.6073 31
 5 -11 3 404.903 49.9797 31
 5 -11 3 468.521 47.1525 30
 3 -11 5 467.826 51.536 30
 -3 -11 5 556.033 54.8966 30
 11 -3 5 399.566 45.575 30
 11 3 -5 500.373 50.3525 29
 11 -3 -5 464.652 50.8876 29
 11 5 -3 442.188 48.4556 29
 11 -5 -3 438.026 49.5539 50
 11 -5 -3 465.498 52.3453 29
 3 11 5 475.014 50.8792 28
 -5 11 3 408.755 47.5911 28
 11 -5 3 465.953 51.2432 50
 5 11 3 445.603 50.1999 28
 11 5 3 387.815 46.7815 28
 11 3 5 392.891 48.0024 28
 5 -11 -3 441.644 46.4437 50
 5 -11 3 442.276 48.7841 50
 5 3 -11 440.748 50.9745 49
 11 -3 -5 357.231 46.9374 49
 11 -5 -3 405.458 47.9901 49
 -5 5 11 298.912 40.7813 27
 -5 11 5 235.64 35.8704 27
 -11 -5 5 240.119 37.843 47
 5 11 -5 342.124 43.7259 46
 5 5 -11 229.957 37.6182 46
 5 -5 -11 204.767 35.4676 46
 5 5 11 294.772 37.9336 45
 11 -5 5 323.641 40.8832 44
 5 -11 5 280.917 34.7454 44
 -5 -5 11 249.463 38.6322 43
 -11 -5 5 310.441 41.4096 43
 -5 11 -5 171.09 30.1642 42
 5 5 -11 236.962 38.1975 42
 5 -5 11 296.782 39.7423 41
 -5 -11 5 347.887 42.2847 41
 -11 5 5 268.338 36.558 40
 -11 5 -5 255.423 41.5898 40
 -5 5 -11 320.566 39.5402 40
 11 5 5 339.027 40.7305 39
 11 5 -5 311.779 41.2878 38
 11 -5 -5 276.345 38.4392 38
 -11 5 5 260.601 40.7838 37
 -11 5 -5 251.304 37.0288 37
 5 -5 11 238.336 37.2031 36
 -5 -11 5 282.88 37.7285 36
 5 -5 11 293.502 37.2649 35
 5 -11 5 212.363 32.6549 35
 -5 -11 5 283.967 40.4296 35
 -5 11 -5 295.552 41.1986 34
 -5 5 -11 207.321 36.9298 34
 -5 11 -5 248.609 36.7273 33
 5 11 -5 238.933 37.6946 33
 11 5 -5 222.667 34.8355 33
 -5 11 5 319.698 42.5255 48
 -11 5 5 302.842 42.6294 32
 -11 5 -5 217.563 36.9453 32
 11 -5 5 275.232 38.5569 31
 5 -11 5 341.324 40.7575 31
 11 -5 5 294.031 36.8543 30
 5 -11 5 313.431 39.4469 30
 -5 -11 5 285.602 37.3112 30
 11 -5 -5 278.401 38.107 29
 5 -11 -5 259.496 37.1824 29
 5 11 5 276.109 37.539 28
 11 5 5 215.331 34.1288 28
 5 -11 5 288.755 35.399 50
 5 5 -11 302.013 40.7719 49
 11 -5 -5 250.174 36.6981 49
 1 7 11 251.09 39.1203 48
 -1 7 11 298.223 37.7523 48
 1 11 7 281.484 39.1667 48
 -1 7 11 254.997 35.8719 27
 -7 11 1 277.796 38.361 48
 -7 11 -1 296.254 40.5892 48
 -7 1 11 290.167 42.8567 47
 -7 -1 11 268.029 39.8964 47
 -11 1 7 269.309 39.0862 47
 -11 -1 7 236.778 38.4506 47
 1 11 -7 327.905 40.2343 46
 7 1 -11 275.632 41.5844 46
 7 -1 -11 265.185 40.6772 46
 7 1 11 278.109 33.6543 45
 11 -1 7 218.259 32.1915 44
 11 -7 1 231.732 37.6129 44
 7 -11 -1 266.588 35.5936 44
 7 -11 1 278.014 36.9236 44
 -1 -7 11 284.385 36.0191 43
 -11 -7 1 317.455 42.8424 43
 -1 11 -7 254.098 39.4116 42
 1 11 -7 250.821 38.6664 42
 -1 7 -11 266.432 38.3511 42
 1 7 -11 232.147 38.65 42
 1 -7 11 228.202 36.3523 41
 -1 -7 11 248.734 36.8423 41
 1 -11 7 261.801 35.3274 41
 -1 -11 7 245.017 35.3123 41
 -7 11 1 315.607 39.3652 40
 -11 7 1 238.718 39.0422 40
 -11 7 -1 307.958 41.9246 40
 -11 1 -7 199.905 34.5287 40
 -7 1 -11 241.571 39.0434 40
 11 7 -1 249.749 37.3298 39
 11 7 1 203.738 32.4743 39
 11 1 7 286.849 37.4177 39
 11 -1 7 219.215 32.5801 39
 7 1 11 250.636 35.9303 39
 7 -1 11 279.1 38.7697 39
 11 7 -1 307.48 37.3188 38
 11 1 -7 288.401 41.3496 38
 11 -1 -7 274.805 40.145 38
 -11 1 7 272.306 38.6189 37
 -11 1 -7 249.233 40.0588 37
 -11 -1 -7 266.636 43.7665 37
 1 -7 11 204.229 36.0656 36
 -1 -7 11 325.407 44.0735 36
 -1 -11 7 205.015 32.4784 36
 -7 -11 1 209.855 32.8934 36
 1 -11 7 279.304 40.5669 35
 -1 -11 7 280.817 39.4192 35
 -7 11 -1 273.54 41.4759 34
 -1 7 -11 280.482 39.2192 34
 -1 11 7 228.157 36.2616 48
 7 11 1 257.154 35.3607 33
 7 11 -1 249.445 37.2725 33
 11 7 1 205.212 33.4847 33
 11 7 -1 266.57 39.7085 33
 -11 1 7 282.927 38.922 32
 -11 7 1 199.733 35.0528 32
 -11 7 -1 229.24 35.1863 32
 -11 1 -7 241.219 38.8346 32
 -11 -1 -7 200.726 34.8498 32
 11 -1 7 247.097 33.9484 31
 11 -7 1 267.051 38.0182 31
 7 -11 1 298.925 37.6855 31
 1 -11 7 296.159 36.9958 31
 11 -7 -1 249.94 38.7903 50
 1 -11 7 263.039 36.6116 30
 -1 -11 7 336.332 40.4913 30
 11 -7 1 271.369 37.8792 29
 11 -7 -1 242.18 36.2187 29
 7 -11 1 261.136 36.2957 29
 7 -11 -1 309.585 40.3403 29
 7 11 1 259.472 37.4625 28
 11 7 1 226.594 32.8135 28
 11 1 7 234.082 34.6271 28
 11 -1 7 216.188 32.5465 28
 11 -7 1 225.689 36.5992 50
 7 -11 -1 220.075 34.1711 50
 7 -11 1 322.695 40.6491 50
 7 1 -11 327.341 42.6806 49
 11 1 -7 246.516 37.9461 49
 7 -1 -11 245.889 37.2437 49
 11 -1 -7 266.854 40.2377 49
 3 7 11 203.904 33.0897 48
 3 11 7 194.313 30.5237 48
 -3 11 7 167.257 30.6768 48
 -7 3 11 227.763 33.0224 27
 -3 7 11 165.886 31.0344 27
 -7 11 3 228.197 35.2613 48
 -11 7 3 244.93 34.796 27
 -7 3 11 182.896 30.78 47
 -7 -3 11 233.685 34.4986 47
 -11 -3 7 237.34 37.2951 47
 -11 -7 -3 184.268 30.2446 47
 3 11 -7 241.456 36.8319 46
 3 7 -11 208.816 31.2604 46
 7 3 -11 211.036 35.8329 46
 7 -3 -11 196.679 32.3556 46
 3 11 7 224.299 30.0387 45
 3 7 11 253.993 33.4017 45
 7 3 11 161.966 28.1769 45
 11 -3 7 179.618 28.8182 44
 11 -7 3 182.571 33.0308 44
 7 -11 3 194.657 31.5133 44
 -3 -7 11 192.124 30.6938 43
 -7 -3 11 239.636 34.9038 43
 -11 -7 3 219.738 34.9469 43
 -3 11 -7 193.176 32.4189 42
 3 11 -7 270.201 36.8183 42
 -3 7 -11 150.47 27.185 42
 3 7 -11 201.32 32.8047 42
 3 -7 11 221.512 35.125 41
 -3 -7 11 164.817 29.4079 41
 -3 -11 7 206.889 32.5194 41
 -7 -11 3 192.834 33.4223 41
 -11 7 3 199.764 35.161 40
 -11 7 -3 228.317 35.8351 40
 -11 3 -7 213.028 35.6686 40
 -7 3 -11 225.249 35.9556 40
 11 7 -3 187.144 32.1098 39
 11 7 3 201.323 32.4414 39
 11 3 7 218.676 32.8136 39
 7 3 11 211.794 30.4052 39
 7 -3 11 230.389 33.5881 39
 11 7 -3 217.37 33.0493 38
 11 3 -7 186.831 32.3191 38
 11 -3 -7 250.483 37.1538 38
 -11 3 7 182.403 33.8829 37
 -11 7 3 204.366 32.7991 37
 -11 3 -7 216.015 34.395 37
 -11 -3 -7 205.611 35.2832 37
 3 -7 11 212.113 34.5725 36
 -3 -7 11 238.446 35.7491 36
 -3 -11 7 246.997 35.3003 36
 -7 -11 3 205.257 33.0891 36
 7 -3 11 170.321 27.905 35
 3 -7 11 248.025 33.7469 35
 3 -11 7 197.539 32.4039 35
 -3 -11 7 191.681 31.7653 35
 -7 11 -3 156.021 32.4187 34
 -3 11 -7 178.654 29.127 34
 -3 7 -11 186.246 33.5221 34
 -7 3 -11 122.122 27.8524 34
 7 11 -3 240.075 36.2001 33
 11 7 -3 241.654 37.1338 33
 -11 3 7 189.932 33.2419 32
 -11 7 3 168.633 30.3069 32
 -11 7 -3 211.227 32.7288 32
 -11 3 -7 200.972 34.3589 32
 11 -3 7 224.796 32.7338 31
 11 -7 3 198.3 33.0303 31
 7 -11 3 210.031 32.9288 31
 3 -11 7 236.367 32.1788 31
 11 -3 7 232.243 33.8485 30
 7 -3 11 187.789 29.9258 30
 3 -11 7 189.185 32.266 30
 -3 -11 7 252.202 32.0384 30
 11 -7 -3 193.497 31.8445 29
 7 -11 -3 185.099 31.4877 29
 7 11 3 185.942 32.4638 28
 11 7 3 197.07 30.6876 28
 11 3 7 185.381 30.0885 28
 11 -7 -3 224.176 33.1736 50
 11 -7 3 236.165 35.0038 50
 7 -11 -3 199.575 30.3679 50
 7 -11 3 230.704 34.3752 50
 7 3 -11 172.363 31.0044 49
 11 3 -7 245.709 35.5649 49
 7 -3 -11 159.314 27.9331 49
 11 -3 -7 234.126 36.7611 49
 11 -7 -3 155.973 28.3492 49
 -5 11 7 131.309 25.4719 48
 -7 11 5 114.652 22.7883 48
 -7 5 11 107.687 23.018 27
 -5 7 11 96.4511 23.5661 27
 -5 11 7 122.964 24.8197 27
 -11 7 5 134.103 23.1355 27
 -7 11 5 93.6074 22.1519 27
 -11 -5 7 124.167 23.9933 47
 -11 -7 -5 155.303 25.9629 47
 7 11 -5 124.766 24.9723 46
 5 11 -7 120.069 25.9028 46
 5 7 -11 170.389 28.3457 46
 7 5 -11 110.622 24.4227 46
 7 -5 -11 61.0589 18.8887 46
 5 7 11 98.0943 22.0592 45
 7 5 11 134.26 23.6862 45
 11 -5 7 117.305 22.4067 44
 11 -7 5 97.0334 23.2537 44
 7 -11 5 149.877 25.2028 44
 -5 -7 11 86.4299 23.6037 43
 -7 -5 11 135.682 27.1068 43
 -11 -5 7 141.918 26.0832 43
 -11 -7 5 96.5613 23.4161 43
 5 -7 11 120.852 23.189 41
 -5 -11 7 157.665 26.5194 41
 -7 -11 5 120.263 25.1952 41
 -11 7 -5 131.58 26.9649 40
 -11 5 -7 138.251 27.9384 40
 -7 5 -11 122.653 24.0052 40
 11 7 5 137.014 23.18 39
 11 5 7 85.0961 20.438 39
 7 -5 11 128.073 22.6838 39
 11 7 -5 164.959 28.1317 38
 11 5 -7 118.975 25.1712 38
 11 -5 -7 86.6417 19.7358 38
 11 -7 -5 132.153 24.0516 38
 -11 5 7 133.545 27.9385 37
 -11 7 5 122.287 25.6975 37
 -5 -7 11 112.925 22.822 36
 -5 -11 7 119.654 23.8183 36
 -7 -11 5 181.929 29.3739 36
 -11 -7 5 102.477 22.6754 36
 7 -5 11 87.6504 21.3889 35
 5 -7 11 109.465 23.1347 35
 5 -11 7 129.77 24.4262 35
 -5 -11 7 126.194 23.1998 35
 -7 -11 5 173.103 28.3459 35
 -7 11 -5 106.587 23.5674 34
 -5 11 -7 135.113 26.9739 34
 -5 7 -11 149.103 28.7782 34
 -7 5 -11 172.591 28.6175 34
 7 11 -5 124.243 24.4601 33
 11 7 -5 111.649 22.9416 33
 -11 5 7 148.338 28.7942 32
 -11 7 5 126.42 24.8026 32
 -11 5 -7 125.322 24.5166 32
 11 -5 7 132.692 23.2928 31
 11 -7 5 129.463 26.1885 31
 7 -11 5 119.295 26.0684 31
 5 -11 7 148.542 23.8692 31
 11 -5 7 140.686 24.7903 30
 7 -5 11 99.8337 21.2136 30
 5 -7 11 142.446 24.1523 30
 7 -11 5 120.027 21.9731 30
 5 -11 7 115.241 23.4733 30
 11 -7 -5 121.099 22.9855 29
 7 -11 -5 57.0926 18.8677 29
 5 11 7 115.155 21.146 28
 7 11 5 182.43 28.6465 28
 11 7 5 167.381 26.4573 28
 11 5 7 108.842 22.3405 28
 5 7 -11 167.782 27.6399 49
 7 5 -11 128.849 25.737 49
 11 5 -7 149.43 26.9318 49
 11 -5 -7 118.188 25.0511 49
 11 -7 -5 123.708 25.1451 49
 1 9 11 132.68 24.1116 48
 -1 9 11 103.278 22.5509 48
 1 11 9 137.497 23.1501 48
 -1 11 9 75.669 19.0736 48
 -9 11 1 64.0896 17.9173 48
 -9 11 -1 118.548 24.006 48
 -11 9 -1 80.7186 18.9769 48
 -9 1 11 122.398 25.0233 47
 -9 -1 11 141.333 24.3152 47
 -11 1 9 141.741 25.0003 47
 -11 -1 9 69.8789 20.2985 47
 9 1 -11 111.662 23.5743 46
 9 -1 -11 120.304 24.9395 46
 11 -9 1 99.7191 21.6494 44
 9 -11 1 92.2641 19.5138 44
 -11 -9 1 97.288 21.8488 43
 -11 -9 -1 75.2004 20.6064 43
 -1 11 -9 103.637 21.8229 42
 1 11 -9 132.4 24.082 42
 -1 9 -11 76.1082 19.5748 42
 1 9 -11 104.241 22.1466 42
 1 -9 11 119.788 22.6883 41
 1 -11 9 117.734 21.0734 41
 -1 -9 11 107.018 21.5671 41
 -1 -11 9 111.955 20.4238 41
 -9 -11 1 79.2549 19.9599 41
 -9 11 1 72.856 19.2953 40
 -11 9 1 64.6469 19.3448 40
 -11 9 -1 93.8662 23.2932 40
 -11 1 -9 105.214 21.6845 40
 -9 1 -11 80.0072 21.74 40
 -9 -1 -11 106.743 23.3169 40
 11 9 1 89.748 18.8427 39
 11 1 9 67.9983 18.4886 39
 11 -1 9 134.563 21.8174 39
 9 1 11 88.809 21.7804 39
 9 -1 11 70.023 18.1923 39
 11 1 -9 120.705 23.4535 38
 11 -1 -9 78.5696 19.5965 38
 -11 1 -9 111.099 23.182 37
 -11 -1 -9 69.2152 20.9055 37
 1 -9 11 113.185 23.0548 36
 -1 -9 11 152.677 24.0337 36
 -1 -11 9 82.8707 18.4792 36
 -9 -11 1 71.6881 18.3009 36
 1 -11 9 113.018 21.7383 35
 -1 -11 9 97.0079 21.3247 35
 9 11 -1 114.59 22.3451 33
 11 9 -1 52.9264 16.6292 33
 -11 1 -9 81.8773 21.3075 32
 -11 -1 -9 122.078 23.2051 32
 1 -11 9 110.526 20.9317 30
 11 -9 -1 144.209 25.541 29
 9 -11 -1 93.2966 20.0687 29
 11 -9 -1 129.405 22.8236 50
 11 -9 1 71.2146 18.8241 50
 9 -11 -1 125.355 24.3163 50
 9 -11 1 84.6136 20.2626 50
 9 1 -11 107.137 22.736 49
 11 1 -9 88.1332 21.2017 49
 9 -1 -11 117.005 22.0099 49
 11 -1 -9 108.289 23.0758 49
 -12 0 0 2416.49 122.573 47
 0 0 12 2525.76 116.855 45
 12 0 0 2444.76 115.624 44
 0 0 12 2761.78 128.908 43
 0 0 -12 2494.47 127.468 42
 -12 0 0 2458.59 128.697 37
 0 12 0 2360.6 120.462 33
 -12 0 0 2249.1 117.634 32
 0 -12 0 2568.24 117.101 30
 12 0 0 2208.02 114.233 29
 0 12 0 2370.87 118.895 28
 12 0 0 2588.55 125.194 50
 0 0 12 2713.8 129.344 27
 -12 0 2 1951.2 109.164 47
 -12 -2 0 2125.17 117.183 47
 -12 0 -2 1939.77 108.388 47
 0 2 12 2237.57 106.579 45
 2 0 12 2266.49 109.082 45
 -2 0 12 2213.03 105.034 45
 0 -2 12 2309.94 110.358 45
 12 0 2 2059.04 108.256 44
 12 -2 0 2155.18 107.562 44
 0 -2 12 2285.66 117.683 43
 -2 0 12 2472.13 118.988 43
 0 12 -2 1943.87 112.642 42
 0 2 -12 2180.21 119.404 42
 2 0 -12 2238.49 121.085 42
 12 2 0 1869.39 96.3116 39
 -12 0 2 1962.29 111.994 37
 -12 2 0 2142.36 118.834 37
 -12 -2 0 2056.93 108.596 37
 -12 0 -2 2269.42 122.835 37
 0 -12 2 2207.6 106.264 35
 -2 12 0 1946.82 104.414 34
 -2 12 0 2112.7 113.464 33
 0 12 -2 2322.54 119.948 33
 2 12 0 2148.43 112.181 33
 -12 0 2 2068.33 109.018 32
 -12 2 0 2068.37 115.33 32
 -12 0 -2 2025.55 110.906 32
 12 0 2 2345.48 115.631 31
 12 -2 0 2074.87 106.137 31
 0 -12 2 2218.31 111.238 30
 12 2 0 2199.27 111.486 29
 12 0 2 1987.65 102.118 29
 12 0 -2 2301.26 115.382 29
 12 -2 0 2194.55 111.87 29
 -2 12 0 2042.51 110.578 28
 0 12 -2 2102.36 107.308 28
 0 12 2 2124.23 111.626 28
 2 12 0 2074.01 108.134 28
 12 2 0 2200.6 113.45 50
 12 0 -2 2130.26 111.1 50
 12 0 2 1982.58 106.791 50
 12 -2 0 2070.34 112.004 50
 0 -2 12 2096.75 110.982 27
 2 0 12 2275.03 116.633 27
 -2 0 12 2108.72 111.618 27
 0 2 12 2181.6 114.766 27
 -2 12 2 1847.64 97.8467 48
 -12 -2 2 1988.84 110.765 47
 -12 -2 -2 1724.76 104.747 47
 2 2 12 1942.04 100.42 45
 2 -2 12 2072.42 102.956 45
 -2 -2 12 2114 102.681 45
 12 2 2 1880.11 102.76 44
 12 -2 2 1889.59 102.477 44
 -2 -2 12 2156.07 112.051 43
 -2 12 -2 1807.16 109.198 42
 2 12 -2 1802.43 101.298 42
 -2 2 -12 1864.81 103.606 42
 2 2 -12 1954.71 113.026 42
 2 -2 12 2065.1 105.549 41
 12 2 2 1785.72 94.1184 39
 -12 2 2 1837.63 109.116 37
 -12 2 -2 1735.19 107.221 37
 -12 -2 -2 1855.8 106.507 37
 2 -2 12 2009.96 104.339 36
 -2 -12 2 2087.59 105.961 35
 -2 2 -12 2145.63 117.877 34
 -2 12 -2 1884.76 108.173 33
 2 12 -2 2138.4 113.334 33
 -12 2 2 1860.41 106.844 32
 -12 2 -2 1888.83 109.099 32
 12 -2 2 1822.17 101.445 31
 2 -12 2 1946.26 103.692 31
 2 -12 2 2098.55 102.158 30
 12 2 2 1884.82 99.4993 29
 12 2 -2 1808.11 101.911 29
 12 -2 2 1883.17 98.2075 29
 12 -2 -2 2012.07 107.594 29
 -2 12 -2 1916.71 105.131 28
 -2 12 2 1877.61 103.302 28
 2 12 -2 1955.63 99.1473 28
 2 12 2 2037.15 107.09 28
 12 2 -2 1844.19 102.468 50
 12 2 2 1771.58 97.9692 28
 12 2 2 1972.11 103.305 50
 12 -2 -2 1912.89 104.688 50
 12 -2 2 1931.75 104.338 50
 2 -2 12 2066.94 109.877 27
 -2 -2 12 1816.36 99.6506 27
 2 2 12 1947.98 104.488 27
 -2 2 12 1873.32 106.53 27
 0 12 4 1415.3 82.6557 48
 -4 12 0 1434.14 85.1604 48
 -4 0 12 1603.17 94.365 47
 -12 0 4 1192.17 82.7725 47
 -12 -4 0 1466.04 92.0357 47
 -12 0 -4 1367.49 85.9792 47
 4 0 -12 1522.68 92.5505 46
 0 4 12 1546.03 82.6816 45
 4 0 12 1476.64 84.3318 45
 12 0 4 1468.21 88.1959 44
 12 -4 0 1376.13 83.0583 44
 4 -12 0 1545.41 89.8917 44
 0 -4 12 1513.8 90.9523 43
 -4 0 12 1577.46 89.8033 43
 0 12 -4 1462.45 93.3682 42
 0 4 -12 1505.62 96.0494 42
 4 0 -12 1373.69 90.7429 42
 0 -4 12 1621.91 90.5352 41
 -12 4 0 1326.16 84.4331 40
 12 4 0 1460.91 84.0585 39
 4 0 12 1574.18 87.7396 39
 12 0 -4 1317.53 83.5662 38
 -12 0 4 1385.23 88.3544 37
 -12 4 0 1461.9 92.7507 37
 -12 0 -4 1432.97 94.51 37
 0 -4 12 1633.69 92.617 36
 0 -12 4 1516.72 88.5075 35
 -4 12 0 1526.4 93.2944 34
 0 4 -12 1573.06 94.8726 34
 -4 0 -12 1377.19 89.9875 34
 12 -4 0 1563.49 93.6977 50
 -4 12 0 1398.39 88.9294 33
 0 12 -4 1449.6 92.4162 33
 4 12 0 1492.95 90.0763 33
 -12 0 4 1545.72 88.9753 32
 -12 4 0 1361.12 90.2661 32
 -12 0 -4 1360.39 89.662 32
 12 0 4 1490.56 89.008 31
 12 -4 0 1472.2 84.205 31
 4 -12 0 1532.65 85.0879 31
 0 -12 4 1565.16 90.4435 30
 12 4 0 1674.62 93.9949 29
 12 0 -4 1436.07 85.9542 29
 12 -4 0 1493.88 89.1469 29
 -4 12 0 1502.14 91.2716 28
 0 12 4 1351.72 84.0522 28
 4 12 0 1540.23 88.8645 28
 12 0 -4 1440.27 83.3113 50
 0 -4 12 1590.76 89.6217 27
 4 0 12 1566.74 91.1301 27
 -4 0 12 1379.47 84.1396 27
 0 4 12 1540.59 91.6149 27
 -2 12 4 1456.54 84.5113 48
 -4 12 2 1282.49 80.8765 48
 -4 12 -2 1296.92 76.3362 48
 -4 -2 12 1578.39 88.7214 47
 -12 2 4 1333.73 79.212 47
 -12 -2 4 1253.39 85.1423 47
 -12 -4 2 1242.66 82.9708 47
 -12 -4 -2 1290.02 86.812 47
 4 2 -12 1331 85.9153 46
 4 -2 -12 1322.56 84.5786 46
 2 4 12 1321.33 77.7277 45
 4 2 12 1344.98 80.0946 45
 4 -2 12 1336.51 76.7455 45
 2 -4 12 1317.79 76.9298 45
 12 -2 4 1367.29 84.3226 44
 12 -4 2 1374.83 84.024 44
 4 -12 2 1294.22 81.1261 44
 4 -12 -2 1398.95 79.9603 44
 2 -12 4 1444.73 82.5375 44
 -2 -4 12 1461.11 88.7367 43
 -4 -2 12 1359.57 85.5303 43
 -12 -4 2 1228.23 81.3371 43
 -2 12 -4 1372.47 90.652 42
 2 12 -4 1161.22 78.1247 42
 -2 4 -12 1290.4 83.6101 42
 2 4 -12 1420.43 92.1989 42
 4 2 -12 1261.69 85.3628 42
 4 -2 12 1287.79 81.503 41
 2 -4 12 1303.71 81.9917 41
 -2 -12 4 1201.53 74.4542 41
 -4 -12 2 1110.14 73.3122 41
 -12 4 -2 1162.61 79.0022 40
 12 4 -2 1269.95 76.6374 39
 12 4 2 1330.34 80.1786 39
 12 2 4 1227.04 76.5885 39
 4 2 12 1286.25 74.7464 39
 12 4 -2 1188.2 75.1251 38
 12 2 -4 1282.71 80.3856 38
 12 -2 -4 1116.81 74.2956 38
 -12 2 4 1340.61 89.1273 37
 -12 4 2 1156.77 82.6402 37
 -12 4 -2 1166.38 81.9532 37
 -12 2 -4 1263.1 87.6475 37
 -12 -2 -4 1217.29 82.7837 37
 2 -4 12 1325.86 84.3407 36
 -2 -4 12 1396.56 82.0525 36
 2 -12 4 1365.86 80.8091 35
 -2 -12 4 1334.96 83.7066 35
 -4 12 -2 1305.78 84.8138 34
 -2 4 -12 1304.24 88.5788 34
 -4 2 -12 1386.32 90.3799 34
 12 -4 -2 1190.93 79.644 50
 -4 12 -2 1391.71 89.8281 33
 -2 12 -4 1162.22 81.4859 33
 2 12 -4 1376.23 88.1092 33
 4 12 -2 1322.55 86.0283 33
 -12 2 4 1193.43 82.77 32
 -12 4 2 1335.03 88.2686 32
 -12 4 -2 1291.29 86.4541 32
 -12 2 -4 1272.47 86.3155 32
 12 -2 4 1267.61 81.0693 31
 12 -4 2 1361.23 82.8166 31
 4 -12 2 1378.34 82.3694 31
 2 -12 4 1369.74 83.976 31
 2 -12 4 1328.73 81.105 30
 -2 -12 4 1355.39 83.598 30
 12 4 2 1282.12 79.2081 29
 12 4 -2 1223.94 80.7655 29
 12 2 -4 1171.05 76.6034 29
 12 -2 -4 1391.58 83.715 29
 12 -4 2 1239.48 74.7103 29
 12 -4 -2 1364.34 85.0538 29
 -4 12 -2 1145.58 78.2101 28
 -4 12 2 1393.06 84.6495 28
 -2 12 4 1370.21 80.896 28
 2 12 4 1249.65 80.1702 28
 4 12 2 1267.63 81.6977 28
 12 4 2 1171.51 76.4698 28
 12 2 4 1288.61 81.1213 28
 12 -2 -4 1159.91 73.1257 50
 12 -2 4 1192.85 74.1495 50
 12 -4 2 1294.97 83.1689 50
 2 -4 12 1262.95 82.8335 27
 4 -2 12 1335.41 84.9138 27
 4 2 12 1461.22 82.7695 27
 2 4 12 1276.86 77.5998 27
 -4 2 12 1306.26 84.3616 27
 -2 4 12 1361.55 86.4472 27
 -4 12 4 840.264 64.136 48
 -12 -4 4 913.147 67.5734 47
 -12 -4 -4 927.576 68.963 47
 4 4 -12 963.216 69.1472 46
 4 -4 -12 954.392 67.9093 46
 4 4 12 904.656 62.6174 45
 4 -4 12 971.666 59.7625 45
 12 -4 4 964.254 68.8324 44
 4 -12 4 863.526 62.1726 44
 -4 -4 12 1036.35 71.8173 43
 -12 -4 4 948.094 66.5582 43
 -4 12 -4 813.582 64.8798 42
 4 4 -12 903.391 69.0244 42
 4 -4 12 991.729 68.6608 41
 -4 -12 4 882.402 62.7128 41
 -12 4 -4 973.397 69.3754 40
 12 4 4 944.875 64.4293 39
 12 4 -4 927.387 66.3974 38
 12 -4 -4 833.841 59.9004 38
 -12 4 4 901.385 69.5614 37
 -12 4 -4 882.122 66.5634 37
 4 -4 12 916.594 67.6605 36
 -4 -12 4 954.112 67.9887 35
 -4 12 -4 948.537 67.7254 34
 -4 4 -12 976.239 72.8584 34
 -4 12 -4 893.219 67.8224 33
 4 12 -4 969.885 69.5213 33
 -12 4 4 989.463 71.7881 32
 -12 4 -4 806.952 66.6573 32
 12 -4 4 900.8 65.7367 31
 4 -12 4 1045.42 69.2748 31
 4 -12 4 845.888 60.4358 30
 -4 -12 4 1050.69 68.9003 30
 12 4 -4 834.998 61.2559 29
 12 -4 -4 913.75 65.344 29
 -4 12 4 887.947 60.7303 28
 4 12 4 908.753 66.0013 28
 12 4 4 892.775 63.9014 28
 12 -4 4 844.771 60.0556 50
 4 -12 4 1034.15 67.4712 50
 -4 4 12 958.188 69.4789 27
 0 12 6 831.99 59.6536 48
 -6 12 0 848.857 61.7674 48
 -6 0 12 897.734 66.2212 47
 -12 0 6 761.349 60.7289 47
 -12 -6 0 679.919 55.0439 47
 6 0 -12 831.679 64.9514 46
 6 0 12 803.822 54.2033 45
 12 0 6 888.236 60.7291 44
 12 -6 0 748.868 55.4364 44
 6 -12 0 697.19 54.6712 44
 0 -6 12 837.245 59.1613 43
 -12 -6 0 750.883 61.1518 43
 0 12 -6 802.685 64.0945 42
 0 6 -12 795.623 63.5609 42
 6 0 -12 665.182 55.9273 42
 0 -6 12 828.451 61.6416 41
 -6 -12 0 706.616 55.3332 41
 -12 6 0 736.058 59.4795 40
 12 6 0 788.786 57.942 39
 12 0 6 743.18 53.0193 39
 6 0 12 810.565 59.9019 39
 12 0 -6 751.173 59.9957 38
 -12 6 0 693.389 56.5778 37
 -12 0 -6 779.815 65.0681 37
 0 -6 12 877.613 64.2248 36
 0 -12 6 795.148 61.2515 35
 -6 12 0 831.054 65.2673 34
 0 12 -6 783.919 60.0638 33
 6 12 0 783.906 59.278 33
 12 6 0 744.803 59.2005 33
 -12 6 0 757.648 59.5356 32
 -12 0 -6 778.762 61.2379 32
 0 -12 6 857.331 58.8231 31
 0 -12 6 814.373 59.9716 30
 12 -6 0 771.996 58.5024 29
 6 -12 0 786.816 58.3477 29
 6 12 0 848.257 58.6529 28
 12 0 6 754.099 57.8553 28
 12 -6 0 844.581 63.9437 50
 6 -12 0 763.903 58.5043 50
 12 0 -6 726.159 56.9259 49
 0 6 12 838.132 58.7511 27
 0 6 12 774.211 55.9507 48
 2 12 6 668.488 50.1901 48
 -2 12 6 718.451 55.9422 48
 -6 12 2 785.686 58.935 48
 -6 12 -2 782.834 56.593 48
 -6 2 12 809.395 60.514 47
 -6 -2 12 707.485 56.0164 47
 -12 2 6 718.766 53.5311 47
 -12 -2 6 644.201 55.882 47
 -12 -6 2 610.423 50.936 47
 -12 -6 -2 626.625 53.4174 47
 6 2 -12 886.585 65.5007 46
 6 -2 -12 632.791 56.491 46
 2 6 12 708.762 51.0938 45
 6 2 12 634.116 48.827 45
 2 -6 12 742.69 51.7735 45
 12 -2 6 609.964 50.4344 44
 12 -6 2 754.848 57.8949 44
 6 -12 2 649.877 52.815 44
 -2 -6 12 681.281 55.0645 43
 -6 -2 12 723.429 54.8792 43
 -12 -6 2 688.226 57.7514 43
 -2 12 -6 685.801 57.2875 42
 2 12 -6 695.854 55.2773 42
 -2 6 -12 625.776 53.3182 42
 2 6 -12 750.705 61.7539 42
 6 2 -12 634.671 51.9344 42
 6 -2 -12 605.36 50.9033 42
 2 -6 12 753.208 57.6225 41
 -2 -6 12 752.677 54.9145 41
 -2 -12 6 736.129 53.4342 41
 -6 -12 2 570.621 50.5742 41
 -12 6 2 589.609 51.8567 40
 -12 6 -2 684.982 57.1459 40
 -12 2 -6 715.674 55.8955 40
 -6 2 -12 713.924 58.7113 40
 12 6 -2 677.936 52.362 39
 12 6 2 644.313 52.3768 39
 12 2 6 674.895 52.8251 39
 6 2 12 647.552 49.4288 39
 6 -2 12 631.316 52.4664 39
 12 6 -2 675.257 52.0492 38
 12 2 -6 718.058 57.603 38
 12 -2 -6 646.718 54.066 38
 -12 2 6 745.539 60.1282 37
 -12 6 2 760.274 58.3934 37
 -12 6 -2 723.478 54.5161 37
 -12 2 -6 709.704 60.0443 37
 -12 -2 -6 698.192 59.0395 37
 2 -6 12 702.08 57.4637 36
 -2 -6 12 753.911 57.6029 36
 2 -12 6 704.34 54.9033 35
 -2 -12 6 665.937 55.1208 35
 -6 12 -2 720.227 59.9576 34
 -2 6 -12 800.779 61.4439 34
 -6 2 -12 678.096 55.2515 34
 -6 12 -2 583.731 53.9393 33
 -2 12 -6 741.289 55.9874 33
 2 12 -6 717.037 55.5554 33
 6 12 -2 626.624 53.8172 33
 12 6 -2 638.015 54.9792 33
 -12 2 6 765.615 59.6718 32
 -12 6 2 640.107 54.3785 32
 -12 6 -2 569.508 51.3872 32
 -12 2 -6 692.885 58.3643 32
 12 -2 6 663.126 53.0945 31
 12 -6 2 640.794 53.0267 31
 6 -12 2 632.32 51.3652 31
 2 -12 6 700.79 53.0175 31
 2 -12 6 727.178 55.2973 30
 -2 -12 6 703.463 53.7141 30
 12 -6 -2 611.461 52.7121 29
 6 -12 -2 694.886 54.8119 29
 2 12 6 606.865 48.2636 28
 6 12 2 685.225 54.22 28
 12 6 2 546.522 47.3475 28
 12 2 6 696.188 54.0185 28
 12 -6 -2 713.928 56.5587 50
 12 -6 2 627.802 53.6131 50
 6 -12 -2 762.169 55.4865 50
 6 -12 2 716.822 55.7827 50
 12 -2 -6 545.972 49.5492 49
 -6 2 12 722.507 54.6013 27
 -2 6 12 652.878 54.1112 27
 -4 12 6 470.619 43.2672 48
 -6 12 4 462.822 42.6235 48
 -6 12 4 407.189 38.1024 27
 -6 12 -4 462.354 38.7658 48
 -12 -4 6 475.187 43.8675 47
 -12 -6 -4 376.351 38.2272 47
 4 6 -12 450.159 41.5114 46
 6 4 -12 481.792 46.4599 46
 6 -4 -12 471.937 44.3574 46
 4 -6 -12 453.502 42.5454 46
 4 6 12 480.798 41.2309 45
 6 4 12 500.489 40.6354 45
 12 -4 6 462.504 40.8413 44
 12 -6 4 486.774 43.3009 44
 6 -12 4 486.81 42.1647 44
 -4 -6 12 606.488 48.6375 43
 -6 -4 12 560.638 46.5908 43
 -12 -4 6 471.521 41.2342 43
 -12 -6 4 442.137 43.0592 43
 -4 12 -6 430.58 41.3761 42
 4 6 -12 435.113 41.896 42
 4 -6 12 447.333 41.6658 41
 -4 -12 6 446.94 40.7005 41
 -6 -12 4 468.671 43.1102 41
 -12 6 -4 407.111 42.3265 40
 -12 4 -6 484.173 45.2902 40
 -6 4 -12 533.301 46.2977 40
 12 6 4 450.528 40.2751 39
 12 4 6 518.549 42.6296 39
 6 -4 12 554.648 45.1144 39
 12 6 -4 546.152 45.0328 38
 12 4 -6 425.542 42.0132 38
 12 -4 -6 393.47 39.5384 38
 -12 4 6 479.865 46.0446 37
 -12 6 4 524.439 45.9949 37
 -12 4 -6 463.446 41.8746 37
 -4 -6 12 519.868 42.5562 36
 -4 -12 6 538.99 42.4365 36
 -6 -12 4 425.044 38.6515 36
 -12 -6 4 439.099 40.9048 36
 4 -12 6 515.784 42.4443 35
 -4 -12 6 525.968 45.0791 35
 -6 -12 4 545.461 46.4447 35
 -6 12 -4 498.05 46.1844 34
 -4 12 -6 423.745 40.5828 34
 -4 6 -12 441.77 44.4639 34
 -6 4 -12 435.868 44.3343 34
 -4 12 -6 414.68 38.9776 33
 4 12 -6 435.51 40.6293 33
 6 12 -4 514.389 45.7514 33
 12 6 -4 479.047 44.0454 33
 -12 4 6 508.419 46.589 32
 -12 6 4 488.291 44.5216 32
 -12 6 -4 472.322 42.7977 32
 -12 4 -6 505.613 46.7757 32
 12 -4 6 440.089 40.2728 31
 12 -6 4 531.796 45.9783 31
 6 -12 4 466.486 42.4198 31
 4 -12 6 470.462 41.9046 31
 4 -12 6 479.806 42.9814 30
 -4 -12 6 517.633 41.7877 30
 -6 -12 4 493.015 41.7749 30
 12 -6 -4 455.985 42.3511 29
 6 -12 -4 561.523 45.3366 29
 4 -12 -6 444.524 38.508 29
 4 12 6 504.067 42.2628 28
 6 12 4 464.474 42.7716 28
 12 6 4 454.634 41.0073 28
 12 4 6 406.99 40.0057 28
 12 -6 4 445.044 38.734 50
 6 -12 4 410.111 38.2873 50
 12 -4 -6 406.508 40.1807 49
 -6 4 12 508.009 44.9304 27
 -4 6 12 411.007 41.9845 27
 -8 12 0 302.367 32.3363 48
 -8 0 12 340.083 35.2553 47
 -12 0 8 291.668 33.3015 47
 8 0 -12 272.538 31.7206 46
 -12 -8 0 276.553 32.1467 43
 0 12 -8 299.696 33.7079 42
 0 8 -12 344.576 36.2188 42
 0 -8 12 351.281 35.1999 41
 -12 8 0 288.048 33.0284 40
 -8 0 -12 301.911 33.5614 40
 12 8 0 353.089 33.2639 39
 8 0 12 311.206 32.0571 39
 12 0 -8 377.76 35.9101 38
 -12 0 -8 290.659 34.1329 37
 0 -8 12 368.535 36.0268 36
 0 -12 8 344.868 33.2129 35
 8 -12 0 318.235 32.9275 50
 12 -8 0 295.407 32.5237 50
 0 12 8 332.786 32.956 48
 1 -1 13 345.364 43.9562 27
 -1 -1 13 299.237 40.0555 27
 1 1 13 233.996 36.0044 27
 -1 1 13 265.877 37.328 27
 -13 1 1 252.228 35.4831 47
 -13 -1 1 254.391 39.1616 47
 -13 1 -1 219.565 33.7581 47
 -13 -1 -1 277.964 39.5785 47
 1 1 13 264.476 36.3108 45
 -1 1 13 284.512 36.4675 45
 1 -1 13 277.713 37.197 45
 -1 -1 13 282.081 37.3456 45
 13 -1 1 243.994 37.2315 44
 -1 -1 13 293.963 40.4946 43
 -1 1 -13 240.992 36.7213 42
 1 1 -13 271.004 40.9101 42
 -1 -1 -13 277.348 38.6502 42
 1 -1 -13 287.62 39.4148 42
 -13 -1 1 301.24 40.7334 37
 -13 1 1 359.804 46.312 37
 -13 1 -1 283.675 43.259 37
 -13 -1 -1 289.639 40.9337 37
 -1 1 -13 267.437 42.589 34
 -1 13 1 270.488 36.8826 33
 -1 13 -1 255.682 36.8531 33
 1 13 1 330.513 39.938 33
 1 13 -1 240.065 36.4831 33
 -13 1 1 235.406 37.2855 32
 -13 1 -1 230.76 36.9634 32
 1 -13 -1 328.242 38.0952 31
 1 -13 1 335.827 39.4792 30
 -1 -13 1 255.42 37.1456 30
 13 1 1 253.139 37.2489 29
 13 1 -1 246.443 37.1668 29
 13 -1 1 292.601 37.6746 29
 13 -1 -1 245.912 37.2543 29
 -1 13 -1 413.056 47.8931 28
 -1 13 1 186.565 34.3542 28
 1 13 -1 234.238 34.8425 28
 1 13 1 199.53 33.8987 28
 13 1 1 254.052 34.4688 28
 13 1 -1 370.022 44.4496 50
 13 1 1 204.157 33.2884 50
 13 -1 -1 237.381 37.1001 50
 13 -1 1 287.635 40.0621 50
 1 -3 13 181.414 29.449 27
 3 -1 13 200.618 33.9014 27
 -1 -3 13 233.009 32.6032 27
 3 1 13 207.306 32.2349 27
 -3 -1 13 218.612 33.0788 27
 1 3 13 177.173 30.0609 27
 -3 1 13 229.206 34.3629 27
 -1 3 13 196.618 33.2176 27
 -1 13 3 188.812 29.7858 48
 -3 13 1 165.827 27.9258 48
 -13 1 3 202.667 31.7471 47
 -13 -1 3 202.958 33.9929 47
 -13 -3 1 161.392 30.0866 47
 -13 -3 -1 214.993 36.6755 47
 -13 -1 -3 210.576 34.1693 47
 1 3 13 218.352 31.9927 45
 3 1 13 224.981 33.9144 45
 3 -1 13 234.508 32.089 45
 -3 -1 13 244.986 31.135 45
 1 -3 13 198.162 31.4053 45
 -1 -3 13 242.681 34.6099 45
 13 1 3 170.9 31.4646 44
 13 -1 3 214.554 34.7771 44
 13 -3 1 245.85 34.1066 44
 3 -13 1 225.035 34.8381 44
 3 -13 -1 215.915 34.4243 44
 1 -13 3 313.74 40.0323 44
 -1 -3 13 176.387 31.6157 43
 -3 -1 13 211.499 33.2776 43
 -1 3 -13 203.018 33.0956 42
 1 3 -13 178.681 34.1257 42
 3 1 -13 200.527 35.9101 42
 3 -1 -13 192.997 33.6525 42
 1 -3 -13 193.749 32.4827 42
 1 -3 13 237.531 33.3683 41
 13 3 -1 172.886 27.8921 39
 13 3 1 170.056 28.4179 39
 3 -1 13 246.66 35.1913 39
 -13 1 3 199.361 35.4756 37
 -13 3 1 189.737 36.09 37
 -13 3 -1 234.85 36.6284 37
 -13 1 -3 231.177 38.017 37
 -13 -1 -3 192.329 33.1648 37
 1 -3 13 181.41 29.3792 36
 -1 -13 3 240.329 32.3946 35
 -3 -13 1 219.423 31.383 35
 -1 3 -13 152.964 31.361 34
 1 3 -13 262.221 36.2252 34
 -3 1 -13 190.194 32.5345 34
 -3 -1 -13 164.356 31.1743 34
 -3 13 1 157.684 28.7035 33
 -3 13 -1 207.484 32.6363 33
 -1 13 -3 184.815 32.6813 33
 1 13 -3 245.979 36.919 33
 3 13 -1 223.846 34.043 33
 -13 1 3 205.22 33.12 32
 -13 3 1 161.022 33.5835 32
 -13 3 -1 180.4 32.3791 32
 -13 1 -3 190.875 32.531 32
 13 -3 1 204.426 32.263 31
 3 -13 1 192.761 32.2108 31
 1 -13 3 264.839 36.9151 31
 1 -13 3 224.465 34.4364 30
 -1 -13 3 232.941 34.7566 30
 13 3 1 186.613 30.4312 29
 13 3 -1 234.971 34.4732 29
 13 1 -3 185.844 31.6457 29
 13 -1 -3 207.312 32.0498 29
 13 -3 1 182.523 29.0415 29
 13 -3 -1 213.86 33.3479 29
 -3 13 -1 238.527 36.2749 28
 -1 13 -3 191.697 33.7239 28
 -3 13 1 237.125 36.7975 28
 -1 13 3 253.008 35.7518 28
 3 13 -1 193.831 28.1106 28
 1 13 3 131.235 27.8048 28
 3 13 1 190.972 31.2217 28
 13 3 1 175.036 27.1393 28
 13 1 3 232.771 34.1288 28
 13 1 -3 234.402 34.4851 50
 13 1 3 165.966 27.6556 50
 13 -1 -3 177.524 31.5653 50
 13 -1 3 270.915 34.9257 50
 13 -3 -1 217.783 33.4424 50
 13 -3 1 233.871 35.2269 50
 3 3 13 193.283 27.6814 27
 -3 3 13 207.275 31.8122 27
 -3 13 3 178.891 29.7324 48
 -13 -3 3 170.268 30.9875 47
 -13 -3 -3 177.82 32.18 47
 3 3 13 176.662 27.0176 45
 3 -3 13 212.131 29.3649 45
 -3 -3 13 174.776 27.3352 45
 13 -3 3 164.794 28.9396 44
 3 -13 3 239.725 32.9822 44
 -3 -3 13 223.746 34.2922 43
 3 3 -13 178.612 32.3216 42
 3 -3 13 164.202 29.8775 41
 13 3 3 118.712 24.5189 39
 13 3 -3 139.218 25.2557 38
 -13 3 3 169.053 30.3471 37
 -13 3 -3 160.844 30.2712 37
 -3 -13 3 154.611 27.1378 35
 -3 3 -13 208.515 34.7288 34
 -3 13 -3 176.382 30.8265 33
 3 13 -3 183.728 30.6009 33
 -13 3 3 170.511 31.1918 32
 -13 3 -3 153.059 29.8561 32
 13 -3 3 161.501 28.4487 31
 3 -13 3 166.043 28.7936 31
 3 -13 3 139.109 24.3138 30
 -3 -13 3 190.404 29.2717 30
 13 3 -3 181.467 28.58 29
 13 -3 -3 128.634 26.3715 29
 -3 13 3 199.337 31.7175 28
 3 13 3 131.146 27.235 28
 13 3 3 134.424 24.6393 28
 13 -3 -3 98.5746 23.2295 50
 13 -3 3 166.535 29.7022 50
 1 5 13 108.048 20.0662 27
 -5 1 13 117.343 23.059 27
 -1 5 13 127.685 25.0359 27
 -1 13 5 121.279 23.6371 48
 -5 13 1 125.906 23.7448 48
 -5 13 -1 150.441 24.0498 48
 -13 1 5 126.417 25.3533 47
 -13 -1 5 133.938 26.2892 47
 -13 -5 1 115.702 24.5063 47
 -13 -5 -1 188.941 30.5663 47
 -13 -1 -5 136.675 25.9087 47
 5 1 -13 111.366 24.1053 46
 5 -1 -13 97.3718 21.6621 46
 1 5 13 115.522 22.787 45
 5 1 13 135.875 23.7591 45
 5 -1 13 129.019 22.1458 45
 1 -5 13 181.503 27.0063 45
 -1 -5 13 127.501 24.8941 45
 13 -1 5 193.214 28.0051 44
 13 -5 1 120.457 24.0388 44
 5 -13 -1 90.9845 20.0312 44
 5 -13 1 108.875 21.0755 44
 -1 -5 13 96 21.8445 43
 -5 -1 13 95.6949 21.1702 43
 -13 -5 1 114.544 24.8329 43
 -13 -5 -1 101.283 24.9518 43
 -1 13 -5 157.883 28.8534 42
 1 13 -5 107.076 21.2113 42
 -1 5 -13 141.934 28.6147 42
 1 5 -13 133.11 26.9289 42
 5 1 -13 136.156 26.4895 42
 5 -1 -13 163.217 29.2931 42
 1 -5 13 153.535 26.8589 41
 -1 -5 13 140.773 23.4234 41
 -13 5 -1 74.5575 20.2145 40
 13 5 -1 142.872 26.2456 39
 13 5 1 122.925 23.9152 39
 13 1 5 124.198 21.9731 39
 5 1 13 168.386 24.7524 39
 5 -1 13 191.408 27.6951 39
 13 1 -5 77.665 19.5331 38
 13 -1 -5 128.403 22.9608 38
 -13 1 5 108.394 23.9329 37
 -13 5 1 122.023 24.4472 37
 -13 5 -1 112.35 22.9491 37
 -13 1 -5 103.305 25.7404 37
 -13 -1 -5 82.4415 22.2112 37
 1 -5 13 114.946 22.5277 36
 -1 -5 13 128.999 22.9025 36
 1 -13 5 140.431 24.9561 35
 -1 -13 5 117.476 23.5623 35
 -5 -13 1 133.729 25.7211 35
 -1 5 -13 169.483 28.071 34
 -5 1 -13 124.108 26.8298 34
 -5 -1 -13 128.255 24.0969 34
 -5 13 -1 136.675 24.9679 33
 -1 13 -5 127.236 25.039 33
 1 13 -5 122.319 24.9771 33
 5 13 -1 135.136 24.7376 33
 13 5 1 105.482 20.7912 33
 13 5 -1 164.366 28.2118 33
 -13 1 5 156.77 25.6004 32
 -13 5 1 163.689 27.7897 32
 -13 5 -1 104.081 24.8325 32
 -13 1 -5 187.419 29.3143 32
 13 -5 1 117.415 22.2965 31
 5 -13 1 101.538 19.9866 31
 1 -13 5 175.427 28.1465 31
 -1 -13 5 137.721 26.7343 31
 1 -13 5 101.232 23.0624 30
 -1 -13 5 126.423 25.2237 30
 13 1 -5 119.05 23.1468 29
 13 -1 -5 113.4 21.6187 29
 13 -5 1 128.874 22.5814 29
 13 -5 -1 163.049 26.9953 29
 5 -13 1 149.298 23.9846 29
 5 -13 -1 169.794 28.4901 29
 -1 13 5 190.507 27.7802 28
 1 13 5 119.642 24.6019 28
 5 13 1 84.5827 21.484 28
 13 1 5 109 22.4372 28
 13 -1 5 124.993 24.9086 28
 13 -5 -1 138.985 25.0893 50
 13 -5 1 162.646 26.8624 50
 5 -13 -1 148.597 25.1756 50
 5 -13 1 86.4608 21.5762 50
 -5 3 13 124.607 24.1129 27
 -3 5 13 78.0397 19.5855 27
 -3 13 5 109.895 21.9692 48
 -5 13 3 147.62 25.383 48
 -13 -3 5 118.453 24.8659 47
 -13 -5 3 108.664 21.4378 47
 -13 -5 -3 112.913 23.8458 47
 -13 -3 -5 114.965 23.7405 47
 5 3 -13 132.249 22.8279 46
 5 -3 -13 81.9232 20.2032 46
 3 5 13 105.258 21.5182 45
 5 3 13 96.4376 20.0522 45
 3 -5 13 131.464 20.8757 45
 -3 -5 13 108.983 20.9836 45
 13 -3 5 106.884 22.264 44
 13 -5 3 97.345 21.709 44
 5 -13 3 60.485 17.0725 44
 -3 -5 13 95.8513 21.4387 43
 -5 -3 13 118.62 22.6311 43
 -13 -5 3 82.5046 18.5634 43
 3 5 -13 88.8472 22.3128 42
 5 3 -13 81.1575 20.3488 42
 5 -3 -13 74.5001 21.4588 42
 3 -5 13 133.694 24.206 41
 -5 -13 3 98.6703 20.694 41
 -13 5 -3 90.6731 20.2804 40
 -5 3 -13 106.112 22.4425 40
 13 5 3 101.162 21.1491 39
 13 3 5 108.241 21.5089 39
 5 -3 13 90.8884 19.9519 39
 13 3 -5 95.7863 20.0261 38
 -13 3 5 89.0119 21.0505 37
 -13 5 3 125.414 24.1028 37
 -13 5 -3 94.7187 19.6154 37
 -13 3 -5 110.188 24.1455 37
 -3 -13 5 112.844 22.0101 35
 -5 -13 3 103.683 21.5925 35
 -5 13 -3 91.0068 20.4477 34
 -3 5 -13 106.674 24.7133 34
 -5 3 -13 132.078 25.2743 34
 -5 13 -3 109.253 22.3602 33
 -3 13 -5 97.0325 22.0068 33
 3 13 -5 104.31 24.577 33
 5 13 -3 116.882 22.6546 33
 13 5 -3 84.9102 19.4764 33
 -13 3 5 138.353 25.6783 32
 -13 5 3 108.535 23.1136 32
 -13 5 -3 85.1305 21.75 32
 -13 3 -5 96.522 22.7985 32
 13 -3 5 105.231 21.2175 31
 13 -5 3 97.038 21.5028 31
 5 -13 3 84.2449 19.3499 31
 3 -13 5 114.708 22.6049 31
 3 -13 5 72.2177 18.1426 30
 -3 -13 5 102.143 21.3471 30
 -5 -13 3 149.018 26.2643 30
 13 -3 -5 115.596 21.4642 29
 13 -5 -3 96.5525 19.9422 29
 5 -13 -3 112.627 22.3297 29
 3 13 5 63.2081 17.6913 28
 5 13 3 122.227 21.6075 28
 13 5 3 111.114 19.8628 28
 13 3 5 68.3852 17.536 28
 13 -5 -3 64.9506 16.6772 50
 13 -5 3 140.866 23.3922 50
 5 -13 3 137.68 23.7201 50
 -14 0 0 469.751 41.7146 47
 0 0 14 504.256 41.5025 45
 0 0 -14 378.698 39.4777 42
 -14 0 0 469.024 44.1649 37
 0 0 -14 468.698 45.6181 34
 0 14 0 486.86 42.9034 33
 0 -14 0 557.251 43.6452 31
 14 0 0 469.591 40.9877 29
 0 14 0 577.783 47.3428 28
 14 0 0 450.955 42.2581 50
 0 0 14 499.519 44.75 27
 -14 0 2 394.278 38.4767 47
 -14 -2 0 367.94 38.6044 47
 -14 0 -2 360.519 35.2713 47
 0 2 14 410.206 35.9573 45
 2 0 14 512.794 41.6722 45
 0 -2 14 445.605 39.0909 45
 2 -14 0 503.76 44.7859 44
 0 -14 2 537.852 44.093 44
 0 2 -14 394.615 39.6055 42
 2 0 -14 350.132 38.5654 42
 0 -2 -14 377.896 36.6365 42
 -14 0 2 387.264 38.6317 37
 -14 2 0 467.044 43.9631 37
 -14 0 -2 426.756 42.3355 37
 0 2 -14 404.476 40.6175 34
 -2 0 -14 450.238 43.2807 34
 2 0 -14 365.642 37.0542 34
 -2 14 0 446.31 40.3052 33
 0 14 -2 435.337 41.7477 33
 2 14 0 416.844 37.0829 33
 -14 2 0 427.826 40.3633 32
 2 -14 0 482.896 38.1766 31
 0 -14 2 542.501 44.4006 31
 0 -14 2 462.917 39.3923 30
 -2 -14 0 403.516 36.4607 30
 14 2 0 431.836 39.0565 29
 14 0 -2 458.699 41.3947 29
 14 -2 0 403.413 38.4707 29
 -2 14 0 431.874 39.8049 28
 0 14 -2 475.991 39.3882 28
 0 14 2 470.35 42.6159 28
 2 14 0 465.403 40.2897 28
 14 0 2 410.434 36.4412 28
 14 0 -2 406.259 37.9739 50
 14 0 2 422.717 37.7622 50
 14 -2 0 375.261 37.9498 50
 0 -2 14 435.138 39.2239 27
 2 0 14 446.755 41.6286 27
 -2 0 14 409.522 39.0432 27
 0 2 14 430.889 41.6236 27
 -14 -2 2 368.55 37.5274 47
 -14 -2 -2 396.607 38.1379 47
 2 2 14 394.091 35.3712 45
 2 -2 14 355.76 33.9987 45
 -2 -2 14 392.132 34.737 45
 14 -2 2 362.501 34.5262 44
 2 -14 2 414.607 38.3276 44
 2 -14 -2 394.585 35.1837 44
 2 2 -14 438.503 42.0719 42
 2 -2 -14 374.04 38.2456 42
 2 -2 14 390.738 35.383 39
 -14 2 2 379.063 38.3956 37
 -14 2 -2 332.216 36.3825 37
 -2 2 -14 440.222 42.2481 34
 -2 -2 -14 385.63 38.7298 34
 -2 14 -2 444.739 41.0604 33
 2 14 -2 393.084 38.3944 33
 -14 2 2 403.05 38.5772 32
 -14 2 -2 363.928 37.3274 32
 2 -14 2 433.472 38.652 31
 -2 -14 2 368.379 35.8453 30
 14 2 -2 338.884 34.3736 29
 14 -2 -2 381.986 36.6012 29
 -2 14 2 385.877 36.4471 28
 14 -2 -2 348.595 34.0304 50
 14 -2 2 363.48 35.7508 50
 14 -2 2 321.299 31.4981 28
 2 14 2 297.812 32.906 28
 2 -2 14 365.741 37.1048 27
 2 2 14 394.02 36.4444 27
 -2 2 14 419.465 39.383 27

_iucr_refine_instructions_details
;
TITL CF solution in Fm-3m
    NaCl.res
    created by SHELXL-2016/6 at 19:22:50 on 20-Jan-2022
CELL 0.71073 5.641087 5.641087 5.641087 90 90 90
ZERR 192 0.000051 0.000051 0.000051 0 0 0
LATT 4
SYMM -Y,+X,+Z
SYMM +X,-Y,-Z
SYMM +Z,+X,+Y
SYMM -X,-Y,+Z
SYMM -Y,-X,-Z
SYMM +Y,+X,-Z
SYMM +Z,-Y,+X
SYMM -X,+Z,+Y
SYMM -Z,+X,-Y
SYMM +Z,-X,-Y
SYMM +Y,+Z,+X
SYMM +Y,-X,+Z
SYMM -X,+Y,-Z
SYMM -Z,-X,+Y
SYMM -Z,-Y,-X
SYMM -X,-Z,-Y
SYMM +Z,+Y,-X
SYMM +X,+Z,-Y
SYMM -Z,+Y,+X
SYMM -Y,-Z,+X
SYMM +Y,-Z,-X
SYMM -Y,+Z,-X
SYMM +X,-Z,+Y
SFAC Cl Na
UNIT 4 4

L.S. 4
PLAN  5
SIZE 0.11 0.11 0.11
CONF
MORE -1
fmap 2
acta
REM <olex2.extras>
REM <HklSrc "%./NaCl.hkl">
REM </olex2.extras>

WGHT    0.017800
FVAR      12.01658
CL1   1    0.000000    0.000000    0.000000    10.02083    0.01793    0.01793 =
         0.01793    0.00000    0.00000    0.00000
NA1   2    0.500000    0.000000    0.000000    10.02083    0.02129    0.02129 =
         0.02129    0.00000    0.00000    0.00000
HKLF 4




REM  CF solution in Fm-3m
REM R1 =  0.0096 for     111 Fo > 4sig(Fo)  and  0.0096 for all     111 data
REM      3 parameters refined using      0 restraints

END  
     
WGHT      0.0178      0.0000 

REM Highest difference peak  0.156,  deepest hole -0.221,  1-sigma level  0.041
Q1    1   0.0609  0.0000  0.0609  10.25000  0.05    0.16
Q2    1   0.2500 -0.0748 -0.2500  10.25000  0.05    0.07
Q3    1  -0.1749 -0.1749  0.2449  10.50000  0.05    0.07
Q4    1  -0.2075 -0.2075  0.2075  10.16667  0.05    0.07
Q5    1   0.0000  0.0971  0.2003  10.50000  0.05    0.06

  REM The information below was added by Olex2.
  REM
  REM R1 = 0.0096 for 111 Fo > 4sig(Fo) and 0.0096 for all 8578 data
  REM 3 parameters refined using n/a restraints
  REM Highest difference peak 0.16, deepest hole -0.22
  REM Mean Shift 0, Max Shift 0.000.

  REM +++ Tabular Listing of Refinement Information +++
  REM R1_all = 0.0096
  REM R1_gt = 0.0096
  REM wR_ref = 0.0267
  REM GOOF = 1.346
  REM Shift_max = 0.000
  REM Shift_mean = 0
  REM Reflections_all = 8578
  REM Reflections_gt = 111
  REM Parameters = 3
  REM Hole = -0.22
  REM Peak = 0.16
  REM Flack = n/a

  
;
_olex2_submission_special_instructions  'No special instructions were received'
_oxdiff_exptl_absorpt_empirical_details
;
Empirical correction (ABSPACK) includes:
- Absorption correction using spherical harmonics
- Frame scaling
;
_oxdiff_exptl_absorpt_empirical_full_max  1.182
_oxdiff_exptl_absorpt_empirical_full_min  0.824

################################################################################

data_NaCl_olex2_C2/m
_audit_creation_date               2022-06-07
_audit_creation_method
;
Olex2 1.5
(compiled 2022.04.07 svn.rca3783a for OlexSys, GUI svn.r6498)
;
_audit_contact_author_address      ?
_audit_contact_author_email        ?
_audit_contact_author_name         ''
_audit_contact_author_phone        ?
_publ_contact_author_id_orcid      ?
_publ_section_references
;
Bourhis, L.J., Dolomanov, O.V., Gildea, R.J., Howard, J.A.K., Puschmann, H.
 (2015). Acta Cryst. A71, 59-75.

Dolomanov, O.V., Bourhis, L.J., Gildea, R.J, Howard, J.A.K. & Puschmann, H.
 (2009), J. Appl. Cryst. 42, 339-341.

Sheldrick, G.M. (2008). Acta Cryst. A64, 112-122.
;
_chemical_formula_moiety           '0.25(Cl0.083 Na0.083)'
_chemical_formula_sum              'Cl0.021 Na0.021'
_chemical_formula_weight           1.218
loop_
  _atom_type_symbol
  _atom_type_scat_dispersion_real
  _atom_type_scat_dispersion_imag
  _atom_type_scat_Cromer_Mann_a1
  _atom_type_scat_Cromer_Mann_a2
  _atom_type_scat_Cromer_Mann_a3
  _atom_type_scat_Cromer_Mann_a4
  _atom_type_scat_Cromer_Mann_b1
  _atom_type_scat_Cromer_Mann_b2
  _atom_type_scat_Cromer_Mann_b3
  _atom_type_scat_Cromer_Mann_b4
  _atom_type_scat_Cromer_Mann_c
  _atom_type_scat_source
  _atom_type_scat_dispersion_source
 Cl 0.14873 0.16029 11.46040 7.19640 6.25560 1.64550 0.01040 1.16620 18.51940
 47.77840 -9.55740 'International Tables Volume C Table 6.1.1.4 (pp. 500-502)'
 'Henke, Gullikson and Davis, At. Data and Nucl. Data Tables, 1993, 54, 2'
 Na 0.03665 0.02467 4.76260 3.17360 1.26740 1.11280 3.28500 8.84220 0.31360
 129.42400 0.67600 'International Tables Volume C Table 6.1.1.4 (pp. 500-502)'
 'Henke, Gullikson and Davis, At. Data and Nucl. Data Tables, 1993, 54, 2'

_space_group_crystal_system        'monoclinic'
_space_group_IT_number             12
_space_group_name_H-M_alt          'C 1 2/m 1'
_space_group_name_Hall             '-C 2y'
loop_
  _space_group_symop_id
  _space_group_symop_operation_xyz
 1 x,y,z
 2 -x,y,-z
 3 -x,-y,-z
 4 x,-y,z
 5 x+1/2,y+1/2,z
 6 -x+1/2,y+1/2,-z
 7 -x+1/2,-y+1/2,-z
 8 x+1/2,-y+1/2,z

_symmetry_Int_Tables_number        12
_cell_length_a                     5.6411(1)
_cell_length_b                     5.6411(1)
_cell_length_c                     5.6411(1)
_cell_angle_alpha                  90
_cell_angle_beta                   90
_cell_angle_gamma                  90
_cell_volume                       179.511(6)
_cell_formula_units_Z              192
_cell_measurement_reflns_used      6287
_cell_measurement_temperature      296.3(6)
_cell_measurement_theta_max        65.1460
_cell_measurement_theta_min        6.2380
_exptl_absorpt_coefficient_mu      1.770
_exptl_absorpt_correction_T_max    0.930
_exptl_absorpt_correction_T_min    0.910
_exptl_absorpt_correction_type     gaussian
_exptl_absorpt_process_details
;
CrysAlisPro 1.171.39.46 (Rigaku Oxford Diffraction, 2018)
Numerical absorption correction based on gaussian integration over
			a multifaceted crystal model
Empirical absorption correction using spherical harmonics,
 implemented in SCALE3 ABSPACK scaling algorithm.
;
_exptl_crystal_colour              colourless
_exptl_crystal_colour_primary      colourless
_exptl_crystal_density_diffrn      2.162
_exptl_crystal_description         block
_exptl_crystal_F_000               112.743
loop_
  _exptl_crystal_face_index_h
  _exptl_crystal_face_index_k
  _exptl_crystal_face_index_l
  _exptl_crystal_face_perp_dist
 1 0 0 0.0550
 -1 0 0 0.0550
 0 0 1 0.0550
 0 0 -1 0.0550
 0 -1 0 0.0550
 0 1 0 0.0550

_exptl_crystal_size_max            0.11
_exptl_crystal_size_mid            0.11
_exptl_crystal_size_min            0.11
_diffrn_reflns_av_R_equivalents    0.0232
_diffrn_reflns_av_unetI/netI       0.0077
_diffrn_reflns_Laue_measured_fraction_full  0.5254
_diffrn_reflns_Laue_measured_fraction_max  0.4014
_diffrn_reflns_limit_h_max         14
_diffrn_reflns_limit_h_min         -14
_diffrn_reflns_limit_k_max         14
_diffrn_reflns_limit_k_min         -14
_diffrn_reflns_limit_l_max         14
_diffrn_reflns_limit_l_min         -14
_diffrn_reflns_number              8579
_diffrn_reflns_point_group_measured_fraction_full  0.5254
_diffrn_reflns_point_group_measured_fraction_max  0.4014
_diffrn_reflns_theta_full          25.2417
_diffrn_reflns_theta_max           79.11
_diffrn_reflns_theta_min           6.26
_diffrn_detector_area_resol_mean   16.0026
_diffrn_detector_type              Eos
_diffrn_measured_fraction_theta_full  0.5254
_diffrn_measured_fraction_theta_max  0.4014
_diffrn_measurement_details
;
List of Runs (angles in degrees, time in seconds):

  # Type    Start    End  Width  t~exp~   \w     \q     \k     \f   Frames
--------------------------------------------------------------------------
  1  \w    -20.00  45.00   1.00    1.00    --    0.00 -99.00 150.00   65
  2  \w    -33.00  72.00   1.00    1.00    --    0.00  77.00 -90.00  105
  3  \w    -75.00  75.00   1.00    1.00    --    0.00   0.00-180.00  150
  4  \w    -75.00  75.00   1.00    1.00    --    0.00   0.00-150.00  150
  5  \w   -123.00 -17.00   1.00    5.00    --  -50.52 -77.00-150.00  106
  6  \w   -123.00 -17.00   1.00    5.00    --  -50.52 -77.00-180.00  106
  7  \w   -123.00 -17.00   1.00    5.00    --  -50.52 -77.00 -30.00  106
  8  \w   -123.00 -73.00   1.00    5.00    --  -50.52-125.00 -60.00   50
  9  \w    -20.00  42.50   0.50    0.50    --    0.00 -99.00 150.00  125
 10  \w    -30.50  70.50   0.50    0.50    --    0.00  77.00 -90.00  202
 11  \w    -73.50  73.50   0.50    0.50    --    0.00   0.00-180.00  294
 12  \w    -73.50  73.50   0.50    0.50    --    0.00   0.00-150.00  294
 13  \w   -123.00 -17.00   1.00    5.00    --  -50.52 -77.00  30.00  106
 14  \w   -123.00 -17.00   1.00    5.00    --  -50.52 -77.00 120.00  106
 15  \w   -123.00 -17.00   1.00    5.00    --  -50.52 -77.00  90.00  106
 16  \w   -123.00 -17.00   1.00    5.00    --  -50.52 -77.00 -90.00  106
 17  \w   -110.00  -2.00   1.00    5.00    --  -50.52 125.00 150.00  108
 18  \w   -123.00 -73.00   1.00    5.00    --  -50.52-125.00   0.00   50
 19  \w    -22.00  84.00   1.00    5.00    --   50.52 -77.00 -90.00  106
 20  \w     17.00 123.00   1.00    5.00    --   50.52  77.00-180.00  106
 21  \w    -20.00  74.00   1.00    5.00    --   50.52 -57.00 -60.00   94
 22  \w     17.00 123.00   1.00    5.00    --   50.52  77.00 -30.00  106
 23  \w    -24.00 125.00   1.00    5.00    --   50.52   0.00-180.00  149
 24  \w    -24.00 125.00   1.00    5.00    --   50.52   0.00-150.00  149
 25  \w    -24.00 125.00   1.00    5.00    --   50.52   0.00-120.00  149
 26  \w    -24.00 125.00   1.00    5.00    --   50.52   0.00 -90.00  149
 27  \w     31.00 127.00   1.00   40.00    --  101.04 -63.00  30.00   96
 28  \w     28.00 142.00   1.00   40.00    --  101.04 -91.00-120.00  114
 29  \w     68.00 158.00   1.00   40.00    --  101.04  77.00  30.00   90
 30  \w     68.00 158.00   1.00   40.00    --  101.04  77.00 -30.00   90
 31  \w     75.00 158.00   1.00   40.00    --  101.04  63.00   0.00   83
 32  \w     75.00 158.00   1.00   40.00    --  101.04  63.00-150.00   83
 33  \w     29.00 127.00   1.00   40.00    --  101.04 -50.00-120.00   98
 34  \w     68.00 158.00   1.00   40.00    --  101.04  77.00 150.00   90
 35  \w     75.00 158.00   1.00   40.00    --  101.04  63.00 -30.00   83
 36  \w     75.00 158.00   1.00   40.00    --  101.04  63.00 -60.00   83
 37  \w     68.00 158.00   1.00   40.00    --  101.04  77.00-150.00   90
 38  \w     68.00 158.00   1.00   40.00    --  101.04  77.00  60.00   90
 39  \w     31.00 127.00   1.00   40.00    --  101.04 -63.00 150.00   96
 40  \w     68.00 158.00   1.00   40.00    --  101.04  77.00-180.00   90
 41  \w     68.00 158.00   1.00   40.00    --  101.04  77.00 -60.00   90
 42  \w     68.00 158.00   1.00   40.00    --  101.04  77.00 120.00   90
 43  \w     68.00 158.00   1.00   40.00    --  101.04  77.00 -90.00   90
 44  \w     68.00 158.00   1.00   40.00    --  101.04  77.00   0.00   90
 45  \w     27.00 113.00   1.00   40.00    --  101.04-111.00-180.00   86
 46  \w     68.00 158.00   1.00   40.00    --  101.04  77.00  90.00   90
 47  \w     68.00 158.00   1.00   40.00    --  101.04  77.00-120.00   90
 48  \w     27.00 113.00   1.00   40.00    --  101.04-111.00  60.00   86
 49  \w     75.00 158.00   1.00   40.00    --  101.04  50.00  90.00   83
 50  \w     76.00 158.00   1.00   40.00    --  101.04  62.00  22.67   82
;
_diffrn_measurement_device         'four-circle diffractometer'
_diffrn_measurement_device_type    'SuperNova, Single source at offset/far, Eos'
_diffrn_measurement_method         '\w scans'
_diffrn_radiation_type             'Mo K\a'
_diffrn_radiation_wavelength       0.71073
_reflns_Friedel_coverage           0.0
_reflns_limit_h_max                14
_reflns_limit_h_min                -14
_reflns_limit_k_max                14
_reflns_limit_k_min                0
_reflns_limit_l_max                14
_reflns_limit_l_min                0
_reflns_number_gt                  831
_reflns_number_total               832
_reflns_threshold_expression       I>=2u(I)
_computing_cell_refinement         'CrysAlisPro 1.171.39.46 (Rigaku OD, 2018)'
_computing_data_collection         'CrysAlisPro 1.171.39.46 (Rigaku OD, 2018)'
_computing_data_reduction          'CrysAlisPro 1.171.39.46 (Rigaku OD, 2018)'
_computing_molecular_graphics      'Olex2 1.5 (Dolomanov et al., 2009)'
_computing_publication_material    'Olex2 1.5 (Dolomanov et al., 2009)'
_computing_structure_refinement    'olex2.refine 1.5 (Bourhis et al., 2015)'
_computing_structure_solution      'SHELXS  (Sheldrick, 2008)'
_refine_diff_density_max           0.2034
_refine_diff_density_min           -0.1506
_refine_diff_density_rms           0.0405
_refine_ls_d_res_high              0.3619
_refine_ls_d_res_low               3.2569
_refine_ls_goodness_of_fit_ref     1.0801
_refine_ls_hydrogen_treatment      undef
_refine_ls_matrix_type             full
_refine_ls_number_constraints      0
_refine_ls_number_parameters       17
_refine_ls_number_reflns           832
_refine_ls_number_restraints       0
_refine_ls_R_factor_all            0.0101
_refine_ls_R_factor_gt             0.0101
_refine_ls_restrained_S_all        1.0801
_refine_ls_shift/su_max            0.0000
_refine_ls_shift/su_mean           0.0000
_refine_ls_structure_factor_coef   Fsqd
_refine_ls_weighting_details      
 'w=1/[\s^2^(Fo^2^)+(0.0184P)^2^] where P=(Fo^2^+2Fc^2^)/3'
_refine_ls_weighting_scheme        calc
_refine_ls_wR_factor_gt            0.0296
_refine_ls_wR_factor_ref           0.0296
_olex2_refinement_description
;
;
_atom_sites_solution_primary       direct
loop_
  _atom_site_label
  _atom_site_type_symbol
  _atom_site_fract_x
  _atom_site_fract_y
  _atom_site_fract_z
  _atom_site_U_iso_or_equiv
  _atom_site_adp_type
  _atom_site_occupancy
  _atom_site_site_symmetry_order
  _atom_site_refinement_flags_posn
  _atom_site_refinement_flags_adp
  _atom_site_refinement_flags_occupancy
 Cl2 Cl 0.5 0.0 0.5 0.0179(7) Uani 1.000000 4 S T P
 Na1 Na 0.5 0.0 0.0 0.0212(15) Uani 1.000000 4 S T P
 Na2 Na 0.0 0.0 0.5 0.0212(15) Uani 1.000000 4 S T P
 Cl1 Cl 0.0 0.0 0.0 0.0179(7) Uani 1.000000 4 S T P

loop_
  _atom_site_aniso_label
  _atom_site_aniso_U_11
  _atom_site_aniso_U_22
  _atom_site_aniso_U_33
  _atom_site_aniso_U_12
  _atom_site_aniso_U_13
  _atom_site_aniso_U_23
 Cl2 0.0181(11) 0.0179(12) 0.0177(12) -0.000000 0.0000(8) 0.000000
 Na1 0.021(2) 0.021(3) 0.021(3) -0.000000 -0.000(2) 0.000000
 Na2 0.021(2) 0.021(3) 0.021(3) -0.000000 -0.000(2) 0.000000
 Cl1 0.0181(11) 0.0179(12) 0.0177(12) -0.000000 0.0000(8) 0.000000

loop_
  _geom_bond_atom_site_label_1
  _geom_bond_atom_site_label_2
  _geom_bond_distance
  _geom_bond_site_symmetry_2
  _geom_bond_publ_flag
 Cl2 Na1 2.8205 . ?
 Cl2 Na1 2.8205 1_556 ?
 Cl2 Na2 2.8205 5_545 ?
 Cl2 Na2 2.8205 1_655 ?
 Cl2 Na2 2.8205 5 ?
 Cl2 Na2 2.8205 . ?
 Na1 Na1 3.98886(7) 5_445 ?
 Na1 Na1 3.98886(7) 5_455 ?
 Na1 Na1 3.98886(7) 5 ?
 Na1 Na1 3.98886(7) 5_545 ?
 Na1 Na2 3.9889 5 ?
 Na1 Na2 3.9889 1_654 ?
 Na1 Na2 3.9889 1_554 ?
 Na1 Na2 3.9889 5_544 ?
 Na1 Na2 3.9889 1_655 ?
 Na1 Na2 3.9889 5_554 ?
 Na1 Na2 3.9889 5_545 ?
 Na1 Na2 3.9889 . ?
 Na1 Cl1 2.8205 . ?
 Na1 Cl1 2.8205 5_545 ?
 Na1 Cl1 2.8205 5 ?
 Na1 Cl1 2.8205 1_655 ?
 Na2 Na2 3.98886(7) 5_545 ?
 Na2 Na2 3.98886(7) 5_445 ?
 Na2 Na2 3.98886(7) 5_455 ?
 Na2 Na2 3.98886(7) 5 ?
 Na2 Cl1 2.8205 . ?
 Na2 Cl1 2.8205 1_556 ?

loop_
  _geom_angle_atom_site_label_1
  _geom_angle_atom_site_label_2
  _geom_angle_atom_site_label_3
  _geom_angle
  _geom_angle_site_symmetry_1
  _geom_angle_site_symmetry_3
  _geom_angle_publ_flag
 Na1 Cl2 Na1 180.0 1_556 . ?
 Na2 Cl2 Na1 90.0 5_545 . ?
 Na2 Cl2 Na1 90.0 1_655 . ?
 Na2 Cl2 Na1 90.0 1_655 1_556 ?
 Na2 Cl2 Na1 90.0 5 . ?
 Na2 Cl2 Na1 90.0 5_545 1_556 ?
 Na2 Cl2 Na1 90.0 5 1_556 ?
 Na2 Cl2 Na1 90.0 . . ?
 Na2 Cl2 Na1 90.0 . 1_556 ?
 Na2 Cl2 Na2 180.0 1_655 . ?
 Na2 Cl2 Na2 90.0 1_655 5_545 ?
 Na2 Cl2 Na2 90.0 5 . ?
 Na2 Cl2 Na2 180.0 5 5_545 ?
 Cl2 Na1 Cl2 180.0 1_554 . ?
 Na1 Na1 Cl2 90.0 5_545 . ?
 Na1 Na1 Cl2 90.0 5_445 . ?
 Na1 Na1 Cl2 90.0 5_455 1_554 ?
 Na1 Na1 Cl2 90.0 5_445 1_554 ?
 Na1 Na1 Cl2 90.0 5 1_554 ?
 Na1 Na1 Cl2 90.0 5_545 1_554 ?
 Na1 Na1 Cl2 90.0 5 . ?
 Na1 Na1 Cl2 90.0 5_455 . ?
 Na1 Na1 Na1 180.0 5_545 5_455 ?
 Na1 Na1 Na1 90.0 5 5_455 ?
 Na1 Na1 Na1 90.0 5 5_545 ?
 Na2 Na1 Cl2 135.0 5_544 . ?
 Na2 Na1 Cl2 135.0 1_654 . ?
 Na2 Na1 Cl2 45.0 5_545 . ?
 Na2 Na1 Cl2 45.0 5_544 1_554 ?
 Na2 Na1 Cl2 45.0 5 . ?
 Na2 Na1 Cl2 45.0 5_554 1_554 ?
 Na2 Na1 Cl2 135.0 5_554 . ?
 Na2 Na1 Cl2 135.0 5 1_554 ?
 Na2 Na1 Cl2 45.0 1_655 . ?
 Na2 Na1 Cl2 45.0 1_554 1_554 ?
 Na2 Na1 Cl2 135.0 1_554 . ?
 Na2 Na1 Cl2 135.0 1_655 1_554 ?
 Na2 Na1 Cl2 45.0 . . ?
 Na2 Na1 Cl2 45.0 1_654 1_554 ?
 Na2 Na1 Cl2 135.0 5_545 1_554 ?
 Na2 Na1 Cl2 135.0 . 1_554 ?
 Na2 Na1 Na1 60.0 1_655 5 ?
 Na2 Na1 Na1 60.0 1_654 5 ?
 Na2 Na1 Na1 120.0 5_554 5_545 ?
 Na2 Na1 Na1 120.0 1_554 5_545 ?
 Na2 Na1 Na1 60.0 5 5_455 ?
 Na2 Na1 Na1 60.0 5 5 ?
 Na2 Na1 Na1 60.0 5_554 5 ?
 Na2 Na1 Na1 120.0 5_545 5_455 ?
 Na2 Na1 Na1 120.0 . 5_545 ?
 Na2 Na1 Na1 120.0 1_655 5_455 ?
 Na2 Na1 Na1 60.0 5_545 5_545 ?
 Na2 Na1 Na1 120.0 5_544 5_455 ?
 Na2 Na1 Na1 60.0 1_554 5_455 ?
 Na2 Na1 Na1 120.0 1_654 5_455 ?
 Na2 Na1 Na1 120.0 1_554 5 ?
 Na2 Na1 Na1 60.0 5_544 5_545 ?
 Na2 Na1 Na1 120.0 5_544 5 ?
 Na2 Na1 Na1 60.0 1_654 5_545 ?
 Na2 Na1 Na1 60.0 1_655 5_545 ?
 Na2 Na1 Na1 60.0 . 5_455 ?
 Na2 Na1 Na1 120.0 5 5_545 ?
 Na2 Na1 Na1 60.0 5_554 5_455 ?
 Na2 Na1 Na1 120.0 . 5 ?
 Na2 Na1 Na1 120.0 5_545 5 ?
 Na2 Na1 Na2 60.0 1_654 5_544 ?
 Na2 Na1 Na2 90.0 1_654 1_554 ?
 Na2 Na1 Na2 180.0 1_654 . ?
 Na2 Na1 Na2 90.0 5_545 5_544 ?
 Na2 Na1 Na2 180.0 5_554 5_545 ?
 Na2 Na1 Na2 90.0 5_554 5_544 ?
 Na2 Na1 Na2 60.0 5 1_655 ?
 Na2 Na1 Na2 60.0 5 . ?
 Na2 Na1 Na2 60.0 5_545 . ?
 Na2 Na1 Na2 180.0 1_655 1_554 ?
 Na2 Na1 Na2 90.0 5 5_554 ?
 Na2 Na1 Na2 120.0 5 1_654 ?
 Na2 Na1 Na2 120.0 5 1_554 ?
 Na2 Na1 Na2 60.0 5_554 1_554 ?
 Na2 Na1 Na2 120.0 5_545 1_554 ?
 Na2 Na1 Na2 180.0 5 5_544 ?
 Na2 Na1 Na2 120.0 1_655 5_544 ?
 Na2 Na1 Na2 90.0 1_655 . ?
 Na2 Na1 Na2 120.0 5_554 . ?
 Na2 Na1 Na2 90.0 5 5_545 ?
 Na2 Na1 Na2 60.0 5_554 1_654 ?
 Na2 Na1 Na2 120.0 5_554 1_655 ?
 Cl1 Na1 Cl2 90.0 . . ?
 Cl1 Na1 Cl2 90.0 1_655 1_554 ?
 Cl1 Na1 Cl2 90.0 . 1_554 ?
 Cl1 Na1 Cl2 90.0 5 1_554 ?
 Cl1 Na1 Cl2 90.0 5_545 . ?
 Cl1 Na1 Cl2 90.0 1_655 . ?
 Cl1 Na1 Cl2 90.0 5 . ?
 Cl1 Na1 Cl2 90.0 5_545 1_554 ?
 Cl1 Na1 Na1 45.0 . 5_455 ?
 Cl1 Na1 Na1 135.0 5 5_545 ?
 Cl1 Na1 Na1 45.0 5_545 5_545 ?
 Cl1 Na1 Na1 45.0 5 5_455 ?
 Cl1 Na1 Na1 135.0 . 5 ?
 Cl1 Na1 Na1 135.0 5_545 5_455 ?
 Cl1 Na1 Na1 45.0 1_655 5 ?
 Cl1 Na1 Na1 135.0 1_655 5_455 ?
 Cl1 Na1 Na1 135.0 . 5_545 ?
 Cl1 Na1 Na1 45.0 5 5 ?
 Cl1 Na1 Na1 45.0 1_655 5_545 ?
 Cl1 Na1 Na1 135.0 5_545 5 ?
 Cl1 Na1 Na2 90.0 . 5_544 ?
 Cl1 Na1 Na2 90.0 5 1_554 ?
 Cl1 Na1 Na2 135.0 5 5_544 ?
 Cl1 Na1 Na2 90.0 1_655 5_544 ?
 Cl1 Na1 Na2 45.0 1_655 1_654 ?
 Cl1 Na1 Na2 90.0 5_545 1_655 ?
 Cl1 Na1 Na2 45.0 5 5_554 ?
 Cl1 Na1 Na2 135.0 . 1_654 ?
 Cl1 Na1 Na2 135.0 5 5_545 ?
 Cl1 Na1 Na2 135.0 1_655 . ?
 Cl1 Na1 Na2 135.0 . 1_655 ?
 Cl1 Na1 Na2 90.0 5 . ?
 Cl1 Na1 Na2 90.0 . 5_545 ?
 Cl1 Na1 Na2 90.0 1_655 5_545 ?
 Cl1 Na1 Na2 90.0 . 5_554 ?
 Cl1 Na1 Na2 90.0 5_545 1_554 ?
 Cl1 Na1 Na2 90.0 . 5 ?
 Cl1 Na1 Na2 90.0 5 1_654 ?
 Cl1 Na1 Na2 90.0 5 1_655 ?
 Cl1 Na1 Na2 90.0 1_655 5_554 ?
 Cl1 Na1 Na2 90.0 5_545 . ?
 Cl1 Na1 Na2 45.0 . 1_554 ?
 Cl1 Na1 Na2 90.0 5_545 1_654 ?
 Cl1 Na1 Na2 90.0 1_655 5 ?
 Cl1 Na1 Na2 45.0 5_545 5_544 ?
 Cl1 Na1 Na2 45.0 5 5 ?
 Cl1 Na1 Na2 45.0 5_545 5_545 ?
 Cl1 Na1 Na2 135.0 1_655 1_554 ?
 Cl1 Na1 Na2 135.0 5_545 5 ?
 Cl1 Na1 Na2 45.0 . . ?
 Cl1 Na1 Na2 45.0 1_655 1_655 ?
 Cl1 Na1 Na2 135.0 5_545 5_554 ?
 Cl1 Na1 Cl1 180.0 1_655 . ?
 Cl1 Na1 Cl1 90.0 5 . ?
 Cl1 Na1 Cl1 180.0 5 5_545 ?
 Cl1 Na1 Cl1 90.0 1_655 5_545 ?
 Cl2 Na2 Cl2 180.0 1_455 . ?
 Cl2 Na2 Cl2 90.0 1_455 5_445 ?
 Cl2 Na2 Cl2 90.0 5_455 . ?
 Cl2 Na2 Cl2 180.0 5_455 5_445 ?
 Na1 Na2 Cl2 90.0 5_445 1_455 ?
 Na1 Na2 Cl2 90.0 5_456 1_455 ?
 Na1 Na2 Cl2 90.0 1_456 5_455 ?
 Na1 Na2 Cl2 135.0 5_445 5_455 ?
 Na1 Na2 Cl2 45.0 5_456 5_455 ?
 Na1 Na2 Cl2 45.0 1_456 1_455 ?
 Na1 Na2 Cl2 90.0 5_445 . ?
 Na1 Na2 Cl2 90.0 1_456 5_445 ?
 Na1 Na2 Cl2 45.0 5_445 5_445 ?
 Na1 Na2 Cl2 45.0 1_455 1_455 ?
 Na1 Na2 Cl2 45.0 . . ?
 Na1 Na2 Cl2 135.0 1_556 1_455 ?
 Na1 Na2 Cl2 90.0 5_455 . ?
 Na1 Na2 Cl2 90.0 5_455 1_455 ?
 Na1 Na2 Cl2 135.0 5_455 5_445 ?
 Na1 Na2 Cl2 135.0 5_446 5_455 ?
 Na1 Na2 Cl2 90.0 1_556 5_455 ?
 Na1 Na2 Cl2 135.0 . 1_455 ?
 Na1 Na2 Cl2 135.0 5_456 5_445 ?
 Na1 Na2 Cl2 45.0 5_455 5_455 ?
 Na1 Na2 Cl2 135.0 1_455 . ?
 Na1 Na2 Cl2 90.0 . 5_445 ?
 Na1 Na2 Cl2 90.0 1_455 5_445 ?
 Na1 Na2 Cl2 90.0 1_455 5_455 ?
 Na1 Na2 Cl2 45.0 1_556 . ?
 Na1 Na2 Cl2 90.0 . 5_455 ?
 Na1 Na2 Cl2 90.0 1_556 5_445 ?
 Na1 Na2 Cl2 90.0 5_456 . ?
 Na1 Na2 Cl2 90.0 5_446 . ?
 Na1 Na2 Cl2 135.0 1_456 . ?
 Na1 Na2 Cl2 45.0 5_446 5_445 ?
 Na1 Na2 Cl2 90.0 5_446 1_455 ?
 Na1 Na2 Na1 120.0 5_446 . ?
 Na1 Na2 Na1 60.0 5_455 1_455 ?
 Na1 Na2 Na1 60.0 5_455 . ?
 Na1 Na2 Na1 180.0 5_455 5_446 ?
 Na1 Na2 Na1 90.0 1_556 . ?
 Na1 Na2 Na1 90.0 1_456 1_455 ?
 Na1 Na2 Na1 90.0 5_455 5_445 ?
 Na1 Na2 Na1 90.0 5_446 5_445 ?
 Na1 Na2 Na1 60.0 5_456 1_556 ?
 Na1 Na2 Na1 120.0 5_455 1_556 ?
 Na1 Na2 Na1 180.0 5_456 5_445 ?
 Na1 Na2 Na1 120.0 5_446 1_455 ?
 Na1 Na2 Na1 90.0 5_456 5_446 ?
 Na1 Na2 Na1 120.0 5_455 1_456 ?
 Na1 Na2 Na1 90.0 5_456 5_455 ?
 Na1 Na2 Na1 120.0 5_456 . ?
 Na1 Na2 Na1 120.0 5_456 1_455 ?
 Na1 Na2 Na1 120.0 1_556 5_445 ?
 Na1 Na2 Na1 180.0 1_456 . ?
 Na1 Na2 Na1 60.0 5_456 1_456 ?
 Na1 Na2 Na1 120.0 1_456 5_445 ?
 Na1 Na2 Na1 180.0 1_556 1_455 ?
 Na2 Na2 Cl2 45.0 5_445 1_455 ?
 Na2 Na2 Cl2 135.0 5_545 5_455 ?
 Na2 Na2 Cl2 45.0 5_545 . ?
 Na2 Na2 Cl2 45.0 5_545 5_445 ?
 Na2 Na2 Cl2 45.0 5 . ?
 Na2 Na2 Cl2 135.0 5 1_455 ?
 Na2 Na2 Cl2 135.0 5_455 5_445 ?
 Na2 Na2 Cl2 45.0 5_445 5_445 ?
 Na2 Na2 Cl2 45.0 5_455 1_455 ?
 Na2 Na2 Cl2 45.0 5 5_455 ?
 Na2 Na2 Cl2 45.0 5_455 5_455 ?
 Na2 Na2 Cl2 135.0 5_445 5_455 ?
 Na2 Na2 Cl2 135.0 5_545 1_455 ?
 Na2 Na2 Cl2 135.0 5_445 . ?
 Na2 Na2 Cl2 135.0 5_455 . ?
 Na2 Na2 Cl2 135.0 5 5_445 ?
 Na2 Na2 Na1 60.0 5_455 1_456 ?
 Na2 Na2 Na1 120.0 5_545 1_455 ?
 Na2 Na2 Na1 120.0 5_545 1_456 ?
 Na2 Na2 Na1 120.0 5_455 . ?
 Na2 Na2 Na1 60.0 5_445 1_455 ?
 Na2 Na2 Na1 120.0 5 1_456 ?
 Na2 Na2 Na1 60.0 5_545 5_446 ?
 Na2 Na2 Na1 120.0 5_455 5_445 ?
 Na2 Na2 Na1 120.0 5_445 1_556 ?
 Na2 Na2 Na1 120.0 5_445 . ?
 Na2 Na2 Na1 60.0 5_545 . ?
 Na2 Na2 Na1 120.0 5_455 5_446 ?
 Na2 Na2 Na1 60.0 5_545 5_445 ?
 Na2 Na2 Na1 60.0 5 5_456 ?
 Na2 Na2 Na1 120.0 5_545 5_456 ?
 Na2 Na2 Na1 60.0 5_455 5_455 ?
 Na2 Na2 Na1 120.0 5_445 5_455 ?
 Na2 Na2 Na1 60.0 5_545 1_556 ?
 Na2 Na2 Na1 120.0 5_445 5_456 ?
 Na2 Na2 Na1 60.0 5_455 5_456 ?
 Na2 Na2 Na1 60.0 5 . ?
 Na2 Na2 Na1 60.0 5_445 5_445 ?
 Na2 Na2 Na1 120.0 5 5_445 ?
 Na2 Na2 Na1 60.0 5_455 1_455 ?
 Na2 Na2 Na1 60.0 5 5_455 ?
 Na2 Na2 Na1 120.0 5 5_446 ?
 Na2 Na2 Na1 120.0 5 1_455 ?
 Na2 Na2 Na1 120.0 5_455 1_556 ?
 Na2 Na2 Na1 120.0 5_545 5_455 ?
 Na2 Na2 Na1 60.0 5 1_556 ?
 Na2 Na2 Na1 60.0 5_445 5_446 ?
 Na2 Na2 Na1 60.0 5_445 1_456 ?
 Na2 Na2 Na2 90.0 5 5_455 ?
 Na2 Na2 Na2 90.0 5 5_545 ?
 Na2 Na2 Na2 180.0 5_545 5_455 ?
 Cl1 Na2 Cl2 90.0 . 1_455 ?
 Cl1 Na2 Cl2 90.0 1_556 5_455 ?
 Cl1 Na2 Cl2 90.0 . 5_445 ?
 Cl1 Na2 Cl2 90.0 1_556 . ?
 Cl1 Na2 Cl2 90.0 . . ?
 Cl1 Na2 Cl2 90.0 . 5_455 ?
 Cl1 Na2 Cl2 90.0 1_556 5_445 ?
 Cl1 Na2 Cl2 90.0 1_556 1_455 ?
 Cl1 Na2 Na1 135.0 . 5_456 ?
 Cl1 Na2 Na1 45.0 1_556 1_456 ?
 Cl1 Na2 Na1 45.0 . . ?
 Cl1 Na2 Na1 135.0 . 1_556 ?
 Cl1 Na2 Na1 135.0 1_556 5_455 ?
 Cl1 Na2 Na1 45.0 1_556 1_556 ?
 Cl1 Na2 Na1 135.0 . 5_446 ?
 Cl1 Na2 Na1 45.0 1_556 5_446 ?
 Cl1 Na2 Na1 45.0 . 5_455 ?
 Cl1 Na2 Na1 45.0 1_556 5_456 ?
 Cl1 Na2 Na1 45.0 . 5_445 ?
 Cl1 Na2 Na1 45.0 . 1_455 ?
 Cl1 Na2 Na1 135.0 1_556 . ?
 Cl1 Na2 Na1 135.0 1_556 5_445 ?
 Cl1 Na2 Na1 135.0 . 1_456 ?
 Cl1 Na2 Na1 135.0 1_556 1_455 ?
 Cl1 Na2 Na2 90.0 . 5 ?
 Cl1 Na2 Na2 90.0 1_556 5 ?
 Cl1 Na2 Na2 90.0 . 5_455 ?
 Cl1 Na2 Na2 90.0 . 5_545 ?
 Cl1 Na2 Na2 90.0 1_556 5_545 ?
 Cl1 Na2 Na2 90.0 1_556 5_455 ?
 Cl1 Na2 Cl1 180.0 1_556 . ?
 Na1 Cl1 Na1 180.0 1_455 . ?
 Na1 Cl1 Na1 90.0 5_455 . ?
 Na1 Cl1 Na1 180.0 5_455 5_445 ?
 Na1 Cl1 Na1 90.0 1_455 5_445 ?
 Na2 Cl1 Na1 90.0 . . ?
 Na2 Cl1 Na1 90.0 . 5_445 ?
 Na2 Cl1 Na1 90.0 1_554 . ?
 Na2 Cl1 Na1 90.0 1_554 1_455 ?
 Na2 Cl1 Na1 90.0 . 5_455 ?
 Na2 Cl1 Na1 90.0 1_554 5_455 ?
 Na2 Cl1 Na1 90.0 . 1_455 ?
 Na2 Cl1 Na1 90.0 1_554 5_445 ?
 Na2 Cl1 Na2 180.0 1_554 . ?

################################################################################

data_NaCl_negative_ADPs

_symmetry_Int_Tables_number        12
_cell_length_a                     5.6411(1)
_cell_length_b                     5.6411(1)
_cell_length_c                     5.6411(1)
_cell_angle_alpha                  90
_cell_angle_beta                   90
_cell_angle_gamma                  90

loop_
  _atom_site_aniso_label
  _atom_site_aniso_U_11
  _atom_site_aniso_U_22
  _atom_site_aniso_U_33
  _atom_site_aniso_U_23
  _atom_site_aniso_U_13
  _atom_site_aniso_U_12
 Cl1 0.01793(4)  0.01793(4) 0.01793(4) 0.000 0.000 0.000
 Na1 -0.02129(6) 0.02129(6) 0.02129(6) 0.000 0.000 0.000
